@<TRIPOS>MOLECULE
1_ligand.pdb
 60 64 0 0 0
SMALL
GASTEIGER

@<TRIPOS>ATOM
      1  C1        21.9700   20.4220   17.5970 C.ar    1  ***1       -0.0349
      2  C2        21.3380   21.3730   16.7900 C.ar    1  ***1        0.0880
      3  C3        22.1040   22.3310   16.1190 C.ar    1  ***1       -0.0349
      4  C4        23.4910   22.3620   16.2870 C.ar    1  ***1       -0.0344
      5  C5        24.1220   21.4380   17.1250 C.ar    1  ***1        0.0663
      6  C6        23.3600   20.4420   17.7480 C.ar    1  ***1       -0.0344
      7  S7        19.5760   21.3310   16.5730 S.O2    1  ***1       -0.0059
      8  N8        25.4610   21.5160   17.3080 N.ar    1  ***1       -0.2286
      9  N9        26.1330   20.9870   18.3530 N.ar    1  ***1       -0.1277
     10  C10       27.3650   21.2660   18.2650 C.ar    1  ***1        0.2401
     11  C11       27.5480   22.0340   17.0360 C.ar    1  ***1        0.0278
     12  C12       26.3160   22.1200   16.5220 C.ar    1  ***1        0.0783
     13  H5        24.0840   23.1080   15.7670 H       1  ***1        0.0639
     14  O14       18.9520   20.9160   17.8140 O.2     1  ***1       -0.1696
     15  O15       19.1470   22.5590   15.9320 O.2     1  ***1       -0.1696
     16  C16       19.4330   19.9880   15.3850 C.3     1  ***1        0.0596
     17  C17       26.0120   22.8170   15.2130 C.ar    1  ***1        0.0006
     18  C18       25.5120   22.0940   14.1240 C.ar    1  ***1       -0.0526
     19  C19       25.1800   22.7480   12.9340 C.ar    1  ***1       -0.0611
     20  C20       25.3870   24.1250   12.8130 C.ar    1  ***1       -0.0617
     21  C21       25.9240   24.8450   13.8830 C.ar    1  ***1       -0.0611
     22  C22       26.2320   24.1930   15.0810 C.ar    1  ***1       -0.0526
     23  O23       28.3730   20.9580   19.0830 O.3     1  ***1       -0.4365
     24  C24       28.1170   19.8590   19.9030 C.ar    1  ***1        0.1334
     25  C25       27.9910   20.0210   21.2850 C.ar    1  ***1        0.0160
     26  C26       27.7130   18.9130   22.0870 C.ar    1  ***1        0.1272
     27  C27       27.5740   17.6470   21.5130 C.ar    1  ***1       -0.0228
     28  C28       27.7160   17.4690   20.1300 C.ar    1  ***1       -0.0379
     29  C29       27.9910   18.5890   19.3350 C.ar    1  ***1       -0.0156
     30  C30       27.5700   16.0670   19.5060 C.3     1  ***1       -0.0115
     31  C31       27.2460   14.9960   20.5790 C.3     1  ***1       -0.0226
     32  H1        21.3810   19.6660   18.1030 H       1  ***1        0.0637
     33  H2        21.6190   23.0510   15.4690 H       1  ***1        0.0637
     34  H3        23.8430   19.6760   18.3450 H       1  ***1        0.0639
     35  H4        28.4840   22.4270   16.6420 H       1  ***1        0.0693
     36  H8        18.3720   19.8340   15.1410 H       1  ***1        0.0468
     37  H9        19.8460   19.0650   15.8180 H       1  ***1        0.0468
     38  H10       25.3860   21.0180   14.1920 H       1  ***1        0.0624
     39  H11       24.7640   22.1860   12.1030 H       1  ***1        0.0618
     40  H12       26.1000   25.9120   13.7850 H       1  ***1        0.0618
     41  H13       26.6360   24.7640   15.9110 H       1  ***1        0.0624
     42  C45       27.1300   13.6060   19.9020 C.3     1  ***1        0.0482
     43  O46       28.3470   13.2880   19.1990 O.3     1  ***1       -0.3797
     44  C47       28.6510   14.2250   18.1480 C.3     1  ***1        0.0482
     45  C48       28.8470   15.6470   18.7330 C.3     1  ***1       -0.0226
     46  F49       27.5790   19.0630   23.4030 F       1  ***1       -0.2054
     47  H14       25.1310   24.6340   11.8880 H       1  ***1        0.0618
     48  H15       28.1100   20.9990   21.7380 H       1  ***1        0.0683
     49  H16       27.3560   16.8060   22.1620 H       1  ***1        0.0649
     50  H17       28.1100   18.4950   18.2620 H       1  ***1        0.0657
     51  H18       26.7360   16.0750   18.7840 H       1  ***1        0.0350
     52  H19       26.3060   15.2500   21.0950 H       1  ***1        0.0293
     53  H20       28.0510   14.9470   21.3280 H       1  ***1        0.0293
     54  H21       26.2670   13.5750   19.2160 H       1  ***1        0.0560
     55  H22       26.9770   12.8330   20.6720 H       1  ***1        0.0560
     56  H23       27.8560   14.2220   17.3840 H       1  ***1        0.0560
     57  H24       29.5840   13.8930   17.6650 H       1  ***1        0.0560
     58  H25       29.0550   16.3680   17.9260 H       1  ***1        0.0293
     59  H26       29.7160   15.6220   19.4090 H       1  ***1        0.0293
     60  H27       19.9850   20.2440   14.4690 H       1  ***1        0.0468
@<TRIPOS>BOND
     1     1     2   ar
     2     1     6   ar
     3     1    32    1
     4     2     3   ar
     5     2     7    1
     6     3     4   ar
     7     3    33    1
     8     4     5   ar
     9     4    13    1
    10     5     6   ar
    11     5     8    1
    12     6    34    1
    13     7    14    2
    14     7    15    2
    15     7    16    1
    16     8     9   ar
    17     8    12   ar
    18     9    10   ar
    19    10    11   ar
    20    10    23    1
    21    11    12   ar
    22    11    35    1
    23    12    17    1
    24    16    36    1
    25    16    37    1
    26    16    60    1
    27    17    18   ar
    28    17    22   ar
    29    18    19   ar
    30    18    38    1
    31    19    20   ar
    32    19    39    1
    33    20    21   ar
    34    20    47    1
    35    21    22   ar
    36    21    40    1
    37    22    41    1
    38    23    24    1
    39    24    25   ar
    40    24    29   ar
    41    25    26   ar
    42    25    48    1
    43    26    27   ar
    44    26    46    1
    45    27    28   ar
    46    27    49    1
    47    28    29   ar
    48    28    30    1
    49    29    50    1
    50    30    31    1
    51    30    45    1
    52    30    51    1
    53    31    42    1
    54    31    52    1
    55    31    53    1
    56    42    43    1
    57    42    54    1
    58    42    55    1
    59    43    44    1
    60    44    45    1
    61    44    56    1
    62    44    57    1
    63    45    58    1
    64    45    59    1
