@<TRIPOS>MOLECULE
9_aster_ligand.pdb
 48 51 0 0 0
SMALL
GASTEIGER

@<TRIPOS>ATOM
      1  C1        22.0430   20.4520   17.9360 C.ar    1  ***1       -0.0334
      2  C2        21.3360   21.2890   17.0670 C.ar    1  ***1        0.1051
      3  C3        22.0310   22.1730   16.2370 C.ar    1  ***1       -0.0334
      4  C4        23.4270   22.2280   16.2870 C.ar    1  ***1       -0.0344
      5  C5        24.1350   21.4110   17.1740 C.ar    1  ***1        0.0661
      6  C6        23.4390   20.4920   17.9670 C.ar    1  ***1       -0.0344
      7  S7        19.5600   21.2330   17.0490 S.O2    1  ***1        0.0559
      8  N8        25.4830   21.5170   17.2420 N.ar    1  ***1       -0.2318
      9  N9        26.1060   21.0280   18.3350 N.ar    1  ***1       -0.1674
     10  C10       27.3450   21.2880   18.2950 C.ar    1  ***1        0.1012
     11  C11       27.5810   22.0020   17.0390 C.ar    1  ***1       -0.0093
     12  C12       26.3750   22.0800   16.4670 C.ar    1  ***1        0.0750
     13  H5        23.9670   22.9120   15.6400 H       1  ***1        0.0639
     14  O14       19.1080   20.5960   18.2690 O.2     1  ***1       -0.1533
     15  O15       19.0430   22.5350   16.6780 O.2     1  ***1       -0.1533
     16  N16       19.2990   20.2150   15.8080 N.3     1  ***1       -0.2035
     17  C17       26.2450   22.7360   15.1090 C.ar    1  ***1        0.0006
     18  C18       25.7390   22.0190   14.0190 C.ar    1  ***1       -0.0512
     19  C19       25.5660   22.6450   12.7810 C.ar    1  ***1       -0.0428
     20  C20       25.9400   23.9810   12.6150 C.ar    1  ***1        0.0410
     21  C21       26.4860   24.6890   13.6890 C.ar    1  ***1       -0.0428
     22  C22       26.6350   24.0690   14.9330 C.ar    1  ***1       -0.0512
     23 Cl23       25.7250   24.7670   11.0640 Cl      1  ***1       -0.0835
     24  C24       28.3480   20.9180   19.3500 C.3     1  ***1        0.1331
     25  O25       28.5570   19.4950   19.3310 O.3     1  ***1       -0.4858
     26  C26       28.0900   18.8430   20.4710 C.ar    1  ***1        0.1211
     27  C27       27.9360   17.4540   20.4640 C.ar    1  ***1       -0.0199
     28  C28       27.4560   16.7980   21.6010 C.ar    1  ***1       -0.0583
     29  C29       27.1320   17.5320   22.7460 C.ar    1  ***1       -0.0615
     30  C30       27.2940   18.9210   22.7570 C.ar    1  ***1       -0.0583
     31  C31       27.7780   19.5750   21.6200 C.ar    1  ***1       -0.0199
     32  H1        21.5030   19.7710   18.5850 H       1  ***1        0.0638
     33  H2        21.4870   22.8170   15.5550 H       1  ***1        0.0638
     34  H3        23.9790   19.8010   18.6060 H       1  ***1        0.0639
     35  H4        28.5350   22.3710   16.6650 H       1  ***1        0.0659
     36  H8        18.8820   19.3220   15.9740 H       1  ***1        0.1442
     37  H9        19.5470   20.4870   14.8790 H       1  ***1        0.1442
     38  H10       25.4830   20.9700   14.1250 H       1  ***1        0.0625
     39  H11       25.1450   22.0950   11.9460 H       1  ***1        0.0632
     40  H12       26.7920   25.7210   13.5550 H       1  ***1        0.0632
     41  H13       27.0480   24.6320   15.7640 H       1  ***1        0.0625
     42  H14       27.9610   21.2410   20.3290 H       1  ***1        0.0764
     43  H15       29.2850   21.4540   19.1350 H       1  ***1        0.0764
     44  H16       28.1900   16.8910   19.5720 H       1  ***1        0.0654
     45  H17       27.3340   15.7190   21.5950 H       1  ***1        0.0619
     46  H18       26.7560   17.0230   23.6290 H       1  ***1        0.0618
     47  H19       27.0450   19.4910   23.6460 H       1  ***1        0.0619
     48  H20       27.9130   20.6520   21.6250 H       1  ***1        0.0654
@<TRIPOS>BOND
     1     1     2   ar
     2     1     6   ar
     3     1    32    1
     4     2     3   ar
     5     2     7    1
     6     3     4   ar
     7     3    33    1
     8     4     5   ar
     9     4    13    1
    10     5     6   ar
    11     5     8    1
    12     6    34    1
    13     7    14    2
    14     7    15    2
    15     7    16    1
    16     8     9   ar
    17     8    12   ar
    18     9    10   ar
    19    10    11   ar
    20    10    24    1
    21    11    12   ar
    22    11    35    1
    23    12    17    1
    24    16    36    1
    25    16    37    1
    26    17    18   ar
    27    17    22   ar
    28    18    19   ar
    29    18    38    1
    30    19    20   ar
    31    19    39    1
    32    20    21   ar
    33    20    23    1
    34    21    22   ar
    35    21    40    1
    36    22    41    1
    37    24    25    1
    38    24    42    1
    39    24    43    1
    40    25    26    1
    41    26    27   ar
    42    26    31   ar
    43    27    28   ar
    44    27    44    1
    45    28    29   ar
    46    28    45    1
    47    29    30   ar
    48    29    46    1
    49    30    31   ar
    50    30    47    1
    51    31    48    1
