@<TRIPOS>MOLECULE
T_11f_ligand.pdb
 57 60 0 0 0
SMALL
GASTEIGER

@<TRIPOS>ATOM
      1  N         25.4210   21.5150   17.2240 N.ar    1  MOL1       -0.2318
      2  N         26.0320   21.0570   18.3380 N.ar    1  MOL1       -0.1692
      3  C         27.2630   21.3520   18.3260 C.ar    1  MOL1        0.0811
      4  C         27.5060   22.0690   17.0710 C.ar    1  MOL1       -0.0111
      5  C         26.3120   22.1010   16.4680 C.ar    1  MOL1        0.0749
      6  C         28.2470   21.0140   19.4120 C.3     1  MOL1        0.0572
      7  N         27.8110   19.8380   20.1660 N.am    1  MOL1       -0.2935
      8  C         28.0110   18.5870   19.6850 C.2     1  MOL1        0.3042
      9  O         28.5590   18.4350   18.6070 O.2     1  MOL1       -0.2525
     10  N         27.6260   17.5520   20.3850 N.am    1  MOL1       -0.2695
     11  H         27.1980   17.6950   21.3100 H       1  MOL1        0.1564
     12  H         27.3970   19.9990   21.0630 H       1  MOL1        0.1506
     13  C         27.8840   16.2740   20.0210 C.ar    1  MOL1        0.0353
     14  C         28.5960   15.9820   18.8520 C.ar    1  MOL1       -0.0404
     15  C         28.9890   14.6690   18.5740 C.ar    1  MOL1       -0.0595
     16  C         28.6380   13.6330   19.4420 C.ar    1  MOL1       -0.0500
     17  C         27.8970   13.9080   20.5970 C.ar    1  MOL1        0.0566
     18  C         27.5260   15.2270   20.8780 C.ar    1  MOL1       -0.0288
     19  C         27.4770   12.7980   21.5670 C.3     1  MOL1        0.4175
     20  F         26.9800   13.3660   22.6970 F       1  MOL1       -0.1659
     21  F         28.5640   12.0470   21.8890 F       1  MOL1       -0.1659
     22  F         26.5280   11.9850   21.0260 F       1  MOL1       -0.1659
     23  C         24.0870   21.4080   17.0400 C.ar    1  MOL1        0.0661
     24  C         23.3560   22.1360   16.0980 C.ar    1  MOL1       -0.0344
     25  C         21.9650   22.0160   16.0380 C.ar    1  MOL1       -0.0349
     26  C         21.2970   21.1530   16.9120 C.ar    1  MOL1        0.0880
     27  C         22.0300   20.3970   17.8320 C.ar    1  MOL1       -0.0349
     28  C         23.4230   20.5040   17.8770 C.ar    1  MOL1       -0.0344
     29  S         19.5250   21.0540   16.8940 S.O2    1  MOL1       -0.0059
     30  O         19.0640   20.5030   18.1530 O.2     1  MOL1       -0.1696
     31  O         18.9820   22.3130   16.4230 O.2     1  MOL1       -0.1696
     32  C         19.2880   19.8150   15.6100 C.3     1  MOL1        0.0596
     33  C         26.0840   22.7260   15.1090 C.ar    1  MOL1        0.0005
     34  C         25.6710   21.9390   14.0270 C.ar    1  MOL1       -0.0526
     35  C         25.4140   22.5270   12.7850 C.ar    1  MOL1       -0.0611
     36  C         25.6070   23.8980   12.6060 C.ar    1  MOL1       -0.0617
     37  C         26.0540   24.6830   13.6740 C.ar    1  MOL1       -0.0611
     38  C         26.2870   24.0980   14.9210 C.ar    1  MOL1       -0.0526
     39  H         28.4430   22.4800   16.7120 H       1  MOL1        0.0658
     40  H         28.3340   21.8700   20.0980 H       1  MOL1        0.0528
     41  H         29.2270   20.8070   18.9580 H       1  MOL1        0.0528
     42  H         28.8450   16.7780   18.1580 H       1  MOL1        0.0636
     43  H         29.5670   14.4550   17.6820 H       1  MOL1        0.0618
     44  H         28.9390   12.6160   19.2210 H       1  MOL1        0.0623
     45  H         26.9540   15.4410   21.7730 H       1  MOL1        0.0642
     46  H         23.8700   22.7980   15.4110 H       1  MOL1        0.0639
     47  H         21.4030   22.5940   15.3130 H       1  MOL1        0.0637
     48  H         21.5160   19.7270   18.5120 H       1  MOL1        0.0637
     49  H         23.9910   19.8850   18.5620 H       1  MOL1        0.0639
     50  H         19.6330   20.2170   14.6450 H       1  MOL1        0.0468
     51  H         18.2200   19.5590   15.5390 H       1  MOL1        0.0468
     52  H         19.8660   18.9140   15.8590 H       1  MOL1        0.0468
     53  H         25.5510   20.8690   14.1540 H       1  MOL1        0.0624
     54  H         25.0650   21.9160   11.9600 H       1  MOL1        0.0618
     55  H         25.4100   24.3530   11.6430 H       1  MOL1        0.0618
     56  H         26.2190   25.7450   13.5340 H       1  MOL1        0.0618
     57  H         26.6270   24.7110   15.7480 H       1  MOL1        0.0624
@<TRIPOS>BOND
     1    55    36    1
     2    54    35    1
     3    36    35   ar
     4    36    37   ar
     5    35    34   ar
     6    56    37    1
     7    37    38   ar
     8    34    53    1
     9    34    33   ar
    10    50    32    1
    11    38    33   ar
    12    38    57    1
    13    33     5    1
    14    47    25    1
    15    46    24    1
    16    51    32    1
    17    32    52    1
    18    32    29    1
    19    25    24   ar
    20    25    26   ar
    21    24    23   ar
    22    31    29    2
    23     5     4   ar
    24     5     1   ar
    25    39     4    1
    26    29    26    1
    27    29    30    2
    28    26    27   ar
    29    23     1    1
    30    23    28   ar
    31     4     3   ar
    32     1     2   ar
    33    43    15    1
    34    27    28   ar
    35    27    48    1
    36    28    49    1
    37    42    14    1
    38     3     2   ar
    39     3     6    1
    40    15    14   ar
    41    15    16   ar
    42     9     8    2
    43    14    13   ar
    44    41     6    1
    45    44    16    1
    46     6    40    1
    47     6     7    1
    48    16    17   ar
    49     8     7   am
    50     8    10   am
    51    13    10    1
    52    13    18   ar
    53     7    12    1
    54    10    11    1
    55    17    18   ar
    56    17    19    1
    57    18    45    1
    58    22    19    1
    59    19    21    1
    60    19    20    1
