@<TRIPOS>MOLECULE
T_11d_ligand.pdb
 58 61 0 0 0
SMALL
GASTEIGER

@<TRIPOS>ATOM
      1  N         25.4370   21.5120   17.3110 N.ar    1  MOL1       -0.2318
      2  N         26.1490   21.0110   18.3430 N.ar    1  MOL1       -0.1692
      3  C         27.3760   21.2940   18.2210 C.ar    1  MOL1        0.0811
      4  C         27.5050   22.0490   16.9720 C.ar    1  MOL1       -0.0111
      5  C         26.2580   22.1140   16.4900 C.ar    1  MOL1        0.0749
      6  C         28.4560   20.9080   19.1940 C.3     1  MOL1        0.0572
      7  N         28.0310   19.7800   20.0250 N.am    1  MOL1       -0.2935
      8  C         28.2430   18.5020   19.6280 C.2     1  MOL1        0.3042
      9  O         28.7940   18.2860   18.5620 O.2     1  MOL1       -0.2525
     10  N         27.8640   17.5150   20.3970 N.am    1  MOL1       -0.2695
     11  H         27.4330   17.7180   21.3100 H       1  MOL1        0.1564
     12  H         27.6170   19.9950   20.9110 H       1  MOL1        0.1506
     13  C         28.0410   16.2160   20.0490 C.ar    1  MOL1        0.0350
     14  C         28.9920   15.8420   19.0890 C.ar    1  MOL1       -0.0370
     15  C         29.1820   14.4960   18.7710 C.ar    1  MOL1       -0.0179
     16  C         28.4030   13.5140   19.3880 C.ar    1  MOL1        0.1301
     17  C         27.4260   13.8820   20.3160 C.ar    1  MOL1       -0.0179
     18  C         27.2510   15.2290   20.6460 C.ar    1  MOL1       -0.0370
     19  O         28.5970   12.1720   19.0750 O.3     1  MOL1       -0.4057
     20  C         27.3580   11.4590   18.9700 C.3     1  MOL1        0.5752
     21  F         26.3650   12.3540   18.7250 F       1  MOL1       -0.1328
     22  F         27.4130   10.5630   17.9460 F       1  MOL1       -0.1328
     23  F         27.0900   10.8040   20.1330 F       1  MOL1       -0.1328
     24  C         24.0930   21.4030   17.1980 C.ar    1  MOL1        0.0661
     25  C         23.4380   20.4880   18.0270 C.ar    1  MOL1       -0.0344
     26  C         22.0570   20.3020   17.9200 C.ar    1  MOL1       -0.0349
     27  C         21.3200   21.0430   16.9920 C.ar    1  MOL1        0.0880
     28  C         21.9670   21.9840   16.1860 C.ar    1  MOL1       -0.0349
     29  C         23.3460   22.1830   16.3080 C.ar    1  MOL1       -0.0344
     30  S         19.5800   20.7560   16.7970 S.O2    1  MOL1       -0.0059
     31  O         19.0580   20.1440   18.0030 O.2     1  MOL1       -0.1696
     32  O         18.9540   21.9540   16.2740 O.2     1  MOL1       -0.1696
     33  C         19.6090   19.5140   15.4950 C.3     1  MOL1        0.0596
     34  C         25.9070   22.7880   15.1790 C.ar    1  MOL1        0.0005
     35  C         25.4040   22.0380   14.1100 C.ar    1  MOL1       -0.0526
     36  C         25.0330   22.6690   12.9200 C.ar    1  MOL1       -0.0611
     37  C         25.2020   24.0490   12.7780 C.ar    1  MOL1       -0.0617
     38  C         25.7400   24.7960   13.8290 C.ar    1  MOL1       -0.0611
     39  C         26.0870   24.1670   15.0290 C.ar    1  MOL1       -0.0526
     40  H         28.4080   22.4620   16.5360 H       1  MOL1        0.0658
     41  H         28.6810   21.7680   19.8410 H       1  MOL1        0.0528
     42  H         29.3590   20.6230   18.6350 H       1  MOL1        0.0528
     43  H         29.5840   16.6030   18.5920 H       1  MOL1        0.0637
     44  H         29.9360   14.2120   18.0440 H       1  MOL1        0.0655
     45  H         26.8050   13.1250   20.7800 H       1  MOL1        0.0655
     46  H         26.4950   15.5110   21.3720 H       1  MOL1        0.0637
     47  H         24.0030   19.9210   18.7570 H       1  MOL1        0.0639
     48  H         21.5570   19.5820   18.5570 H       1  MOL1        0.0637
     49  H         21.3990   22.5610   15.4660 H       1  MOL1        0.0637
     50  H         23.8370   22.9430   15.7110 H       1  MOL1        0.0639
     51  H         20.0810   18.5960   15.8750 H       1  MOL1        0.0468
     52  H         20.1840   19.8950   14.6380 H       1  MOL1        0.0468
     53  H         18.5800   19.2920   15.1770 H       1  MOL1        0.0468
     54  H         25.3020   20.9630   14.2060 H       1  MOL1        0.0624
     55  H         24.6140   22.0890   12.1060 H       1  MOL1        0.0618
     56  H         24.9180   24.5400   11.8530 H       1  MOL1        0.0618
     57  H         25.8870   25.8640   13.7160 H       1  MOL1        0.0618
     58  H         26.4980   24.7500   15.8460 H       1  MOL1        0.0624
@<TRIPOS>BOND
     1    56    37    1
     2    55    36    1
     3    37    36   ar
     4    37    38   ar
     5    36    35   ar
     6    57    38    1
     7    38    39   ar
     8    35    54    1
     9    35    34   ar
    10    52    33    1
    11    39    34   ar
    12    39    58    1
    13    53    33    1
    14    34     5    1
    15    49    28    1
    16    33    51    1
    17    33    30    1
    18    50    29    1
    19    28    29   ar
    20    28    27   ar
    21    32    30    2
    22    29    24   ar
    23     5     4   ar
    24     5     1   ar
    25    40     4    1
    26    30    27    1
    27    30    31    2
    28     4     3   ar
    29    27    26   ar
    30    24     1    1
    31    24    25   ar
    32     1     2   ar
    33    26    25   ar
    34    26    48    1
    35    22    20    1
    36    25    47    1
    37    44    15    1
    38     3     2   ar
    39     3     6    1
    40     9     8    2
    41    43    14    1
    42    42     6    1
    43    21    20    1
    44    15    14   ar
    45    15    16   ar
    46    20    19    1
    47    20    23    1
    48    19    16    1
    49    14    13   ar
    50     6    41    1
    51     6     7    1
    52    16    17   ar
    53     8     7   am
    54     8    10   am
    55     7    12    1
    56    13    10    1
    57    13    18   ar
    58    17    18   ar
    59    17    45    1
    60    10    11    1
    61    18    46    1
