@<TRIPOS>MOLECULE
T_15_ligand.pdb
 59 62 0 0 0
SMALL
GASTEIGER

@<TRIPOS>ATOM
      1  N         25.4820   21.5200   17.2420 N.ar    1  MOL1       -0.2319
      2  N         26.1080   21.0250   18.3320 N.ar    1  MOL1       -0.1708
      3  C         27.3480   21.2740   18.2920 C.ar    1  MOL1        0.0655
      4  C         27.5830   21.9930   17.0360 C.ar    1  MOL1       -0.0126
      5  C         26.3750   22.0780   16.4670 C.ar    1  MOL1        0.0749
      6  C         28.3290   20.8710   19.3590 C.3     1  MOL1        0.0070
      7  C         27.8680   21.2650   20.7870 C.3     1  MOL1        0.0185
      8  N         27.8270   20.1160   21.6930 N.am    1  MOL1       -0.2988
      9  C         27.7910   18.8640   21.1770 C.2     1  MOL1        0.3039
     10  O         27.7970   18.7220   19.9660 O.2     1  MOL1       -0.2525
     11  N         27.7600   17.8290   21.9740 N.am    1  MOL1       -0.2695
     12  H         27.7920   17.9710   22.9930 H       1  MOL1        0.1564
     13  H         27.8320   20.2800   22.6790 H       1  MOL1        0.1502
     14  C         27.7160   16.5580   21.5000 C.ar    1  MOL1        0.0353
     15  C         27.6870   16.2930   20.1250 C.ar    1  MOL1       -0.0404
     16  C         27.6800   14.9750   19.6610 C.ar    1  MOL1       -0.0595
     17  C         27.6600   13.9110   20.5690 C.ar    1  MOL1       -0.0500
     18  C         27.6430   14.1660   21.9450 C.ar    1  MOL1        0.0566
     19  C         27.6860   15.4870   22.4000 C.ar    1  MOL1       -0.0288
     20  C         27.5810   13.0200   22.9620 C.3     1  MOL1        0.4175
     21  F         28.7010   12.2500   22.9090 F       1  MOL1       -0.1659
     22  F         26.5000   12.2360   22.7050 F       1  MOL1       -0.1659
     23  F         27.4610   13.5440   24.2120 F       1  MOL1       -0.1659
     24  C         24.1340   21.4140   17.1880 C.ar    1  MOL1        0.0661
     25  C         23.4770   20.5730   18.0900 C.ar    1  MOL1       -0.0344
     26  C         22.0920   20.4060   18.0200 C.ar    1  MOL1       -0.0334
     27  C         21.3520   21.0940   17.0540 C.ar    1  MOL1        0.1051
     28  C         22.0030   21.9570   16.1690 C.ar    1  MOL1       -0.0334
     29  C         23.3870   22.1390   16.2530 C.ar    1  MOL1       -0.0344
     30  S         19.6000   20.8330   16.9140 S.O2    1  MOL1        0.0559
     31  O         19.0840   20.3680   18.1870 O.2     1  MOL1       -0.1533
     32  O         18.9990   21.9850   16.2710 O.2     1  MOL1       -0.1533
     33  N         19.5830   19.5930   15.8670 N.3     1  MOL1       -0.2035
     34  H         19.5760   18.6530   16.2070 H       1  MOL1        0.1442
     35  H         19.5420   19.7710   14.8850 H       1  MOL1        0.1442
     36  C         26.1350   22.7250   15.1180 C.ar    1  MOL1        0.0005
     37  C         25.7220   21.9550   14.0270 C.ar    1  MOL1       -0.0526
     38  C         25.4510   22.5600   12.7970 C.ar    1  MOL1       -0.0611
     39  C         25.6340   23.9370   12.6410 C.ar    1  MOL1       -0.0617
     40  C         26.0830   24.7060   13.7180 C.ar    1  MOL1       -0.0611
     41  C         26.3280   24.1010   14.9540 C.ar    1  MOL1       -0.0526
     42  H         28.5240   22.3720   16.6530 H       1  MOL1        0.0657
     43  H         29.2920   21.3620   19.1540 H       1  MOL1        0.0344
     44  H         28.4580   19.7790   19.3230 H       1  MOL1        0.0344
     45  H         26.8610   21.7040   20.7260 H       1  MOL1        0.0466
     46  H         28.5690   22.0100   21.1910 H       1  MOL1        0.0466
     47  H         27.6710   17.1130   19.4170 H       1  MOL1        0.0636
     48  H         27.6890   14.7770   18.5960 H       1  MOL1        0.0618
     49  H         27.6580   12.8900   20.2060 H       1  MOL1        0.0623
     50  H         27.6950   15.6840   23.4650 H       1  MOL1        0.0642
     51  H         24.0460   20.0480   18.8480 H       1  MOL1        0.0639
     52  H         21.5910   19.7430   18.7160 H       1  MOL1        0.0638
     53  H         21.4340   22.4880   15.4140 H       1  MOL1        0.0638
     54  H         23.8820   22.8430   15.5930 H       1  MOL1        0.0639
     55  H         25.6100   20.8820   14.1360 H       1  MOL1        0.0624
     56  H         25.1010   21.9610   11.9630 H       1  MOL1        0.0618
     57  H         25.4270   24.4080   11.6860 H       1  MOL1        0.0618
     58  H         26.2410   25.7710   13.5950 H       1  MOL1        0.0618
     59  H         26.6690   24.7000   15.7900 H       1  MOL1        0.0624
@<TRIPOS>BOND
     1    57    39    1
     2    56    38    1
     3    39    38   ar
     4    39    40   ar
     5    38    37   ar
     6    58    40    1
     7    40    41   ar
     8    37    55    1
     9    37    36   ar
    10    35    33    1
    11    41    36   ar
    12    41    59    1
    13    36     5    1
    14    53    28    1
    15    54    29    1
    16    33    34    1
    17    33    30    1
    18    28    29   ar
    19    28    27   ar
    20    29    24   ar
    21    32    30    2
    22     5     4   ar
    23     5     1   ar
    24    42     4    1
    25    30    27    1
    26    30    31    2
    27     4     3   ar
    28    27    26   ar
    29    24     1    1
    30    24    25   ar
    31     1     2   ar
    32    26    25   ar
    33    26    52    1
    34    25    51    1
    35     3     2   ar
    36     3     6    1
    37    48    16    1
    38    43     6    1
    39    44     6    1
    40     6     7    1
    41    47    15    1
    42    16    15   ar
    43    16    17   ar
    44    10     9    2
    45    15    14   ar
    46    49    17    1
    47    17    18   ar
    48    45     7    1
    49     7    46    1
    50     7     8    1
    51     9     8   am
    52     9    11   am
    53    14    11    1
    54    14    19   ar
    55     8    13    1
    56    18    19   ar
    57    18    20    1
    58    11    12    1
    59    19    50    1
    60    22    20    1
    61    21    20    1
    62    20    23    1
