@<TRIPOS>MOLECULE
T_21a_ligand.pdb
 63 66 0 0 0
SMALL
GASTEIGER

@<TRIPOS>ATOM
      1  N         25.4830   21.5180   17.2410 N.ar    1  MOL1       -0.2319
      2  N         26.1050   21.0290   18.3350 N.ar    1  MOL1       -0.1708
      3  C         27.3440   21.2830   18.2990 C.ar    1  MOL1        0.0641
      4  C         27.5820   22.0000   17.0410 C.ar    1  MOL1       -0.0127
      5  C         26.3750   22.0790   16.4680 C.ar    1  MOL1        0.0749
      6  C         28.3230   20.8910   19.3730 C.3     1  MOL1       -0.0072
      7  C         27.8350   19.6950   20.2310 C.3     1  MOL1       -0.0319
      8  C         27.8900   18.3660   19.4330 C.3     1  MOL1        0.0134
      9  N         27.9690   17.2410   20.3670 N.am    1  MOL1       -0.2991
     10  C         28.1240   15.9790   19.9010 C.2     1  MOL1        0.3039
     11  O         28.1920   15.7860   18.7000 O.2     1  MOL1       -0.2525
     12  N         28.2100   14.9810   20.7420 N.am    1  MOL1       -0.2695
     13  H         27.9120   15.1130   21.7200 H       1  MOL1        0.1564
     14  H         27.9330   17.4440   21.3470 H       1  MOL1        0.1502
     15  C         28.4740   13.6780   20.4690 C.ar    1  MOL1        0.0353
     16  C         28.9450   13.2780   19.2130 C.ar    1  MOL1       -0.0404
     17  C         29.2480   11.9350   18.9690 C.ar    1  MOL1       -0.0595
     18  C         29.0420   10.9760   19.9660 C.ar    1  MOL1       -0.0500
     19  C         28.5270   11.3590   21.2100 C.ar    1  MOL1        0.0566
     20  C         28.2600   12.7100   21.4560 C.ar    1  MOL1       -0.0288
     21  C         28.2500   10.3230   22.3070 C.3     1  MOL1        0.4175
     22  F         28.2950    9.0580   21.8120 F       1  MOL1       -0.1659
     23  F         27.0170   10.5380   22.8420 F       1  MOL1       -0.1659
     24  F         29.1860   10.4530   23.2830 F       1  MOL1       -0.1659
     25  C         24.1340   21.4610   17.1460 C.ar    1  MOL1        0.0661
     26  C         23.4290   20.5620   17.9520 C.ar    1  MOL1       -0.0344
     27  C         22.0400   20.4450   17.8330 C.ar    1  MOL1       -0.0349
     28  C         21.3480   21.2420   16.9160 C.ar    1  MOL1        0.0880
     29  C         22.0480   22.1610   16.1290 C.ar    1  MOL1       -0.0349
     30  C         23.4330   22.2890   16.2620 C.ar    1  MOL1       -0.0344
     31  S         19.5960   21.0530   16.7070 S.O2    1  MOL1       -0.0059
     32  O         19.0250   20.4910   17.9150 O.2     1  MOL1       -0.1696
     33  O         19.0480   22.2800   16.1620 O.2     1  MOL1       -0.1696
     34  C         19.5630   19.7950   15.4220 C.3     1  MOL1        0.0596
     35  C         26.1340   22.7240   15.1190 C.ar    1  MOL1        0.0005
     36  C         26.2260   24.1120   14.9730 C.ar    1  MOL1       -0.0526
     37  C         26.0560   24.7020   13.7180 C.ar    1  MOL1       -0.0611
     38  C         25.7500   23.9110   12.6090 C.ar    1  MOL1       -0.0617
     39  C         25.6180   22.5260   12.7570 C.ar    1  MOL1       -0.0611
     40  C         25.8140   21.9350   14.0090 C.ar    1  MOL1       -0.0526
     41  H         28.5240   22.3810   16.6610 H       1  MOL1        0.0657
     42  H         28.4810   21.7560   20.0350 H       1  MOL1        0.0329
     43  H         29.2760   20.6160   18.8970 H       1  MOL1        0.0329
     44  H         28.4770   19.6050   21.1190 H       1  MOL1        0.0284
     45  H         26.7980   19.8810   20.5460 H       1  MOL1        0.0284
     46  H         28.7760   18.3650   18.7820 H       1  MOL1        0.0462
     47  H         26.9830   18.2700   18.8180 H       1  MOL1        0.0462
     48  H         29.0750   14.0120   18.4260 H       1  MOL1        0.0636
     49  H         29.6430   11.6360   18.0050 H       1  MOL1        0.0618
     50  H         29.2810    9.9360   19.7760 H       1  MOL1        0.0623
     51  H         27.8830   13.0110   22.4270 H       1  MOL1        0.0642
     52  H         23.9610   19.9530   18.6740 H       1  MOL1        0.0639
     53  H         21.5000   19.7360   18.4510 H       1  MOL1        0.0637
     54  H         21.5150   22.7770   15.4140 H       1  MOL1        0.0637
     55  H         23.9660   23.0310   15.6800 H       1  MOL1        0.0639
     56  H         19.9930   20.2060   14.4960 H       1  MOL1        0.0468
     57  H         18.5240   19.4860   15.2380 H       1  MOL1        0.0468
     58  H         20.1520   18.9250   15.7460 H       1  MOL1        0.0468
     59  H         26.4310   24.7330   15.8370 H       1  MOL1        0.0624
     60  H         26.1610   25.7750   13.6060 H       1  MOL1        0.0618
     61  H         25.6150   24.3680   11.6360 H       1  MOL1        0.0618
     62  H         25.3640   21.9110   11.9010 H       1  MOL1        0.0618
     63  H         25.7180   20.8610   14.1200 H       1  MOL1        0.0624
@<TRIPOS>BOND
     1    61    38    1
     2    62    39    1
     3    38    39   ar
     4    38    37   ar
     5    39    40   ar
     6    60    37    1
     7    37    36   ar
     8    40    63    1
     9    40    35   ar
    10    56    34    1
    11    36    35   ar
    12    36    59    1
    13    35     5    1
    14    57    34    1
    15    54    29    1
    16    34    58    1
    17    34    31    1
    18    55    30    1
    19    29    30   ar
    20    29    28   ar
    21    33    31    2
    22    30    25   ar
    23     5     4   ar
    24     5     1   ar
    25    41     4    1
    26    31    28    1
    27    31    32    2
    28    28    27   ar
    29     4     3   ar
    30    25     1    1
    31    25    26   ar
    32     1     2   ar
    33    27    26   ar
    34    27    53    1
    35    26    52    1
    36    49    17    1
    37     3     2   ar
    38     3     6    1
    39    48    16    1
    40    11    10    2
    41    46     8    1
    42    47     8    1
    43    43     6    1
    44    17    16   ar
    45    17    18   ar
    46    16    15   ar
    47     6    42    1
    48     6     7    1
    49     8     7    1
    50     8     9    1
    51    50    18    1
    52    10     9   am
    53    10    12   am
    54    18    19   ar
    55     7    45    1
    56     7    44    1
    57     9    14    1
    58    15    12    1
    59    15    20   ar
    60    12    13    1
    61    19    20   ar
    62    19    21    1
    63    20    51    1
    64    22    21    1
    65    21    23    1
    66    21    24    1
