@<TRIPOS>MOLECULE
T_21b_ligand.pdb
 62 65 0 0 0
SMALL
GASTEIGER

@<TRIPOS>ATOM
      1  N         25.4830   21.5180   17.2410 N.ar    1  MOL1       -0.2319
      2  N         26.1060   21.0290   18.3330 N.ar    1  MOL1       -0.1708
      3  C         27.3470   21.2820   18.2950 C.ar    1  MOL1        0.0641
      4  C         27.5820   21.9990   17.0380 C.ar    1  MOL1       -0.0127
      5  C         26.3750   22.0790   16.4670 C.ar    1  MOL1        0.0749
      6  C         28.3250   20.8860   19.3670 C.3     1  MOL1       -0.0072
      7  C         27.8340   19.6910   20.2240 C.3     1  MOL1       -0.0319
      8  C         27.9390   18.3320   19.4850 C.3     1  MOL1        0.0134
      9  N         28.0020   17.1590   20.3580 N.am    1  MOL1       -0.2991
     10  C         28.1930   15.8970   19.9050 C.2     1  MOL1        0.3039
     11  O         28.2190   15.6890   18.7040 O.2     1  MOL1       -0.2525
     12  N         28.1930   14.9310   20.7860 N.am    1  MOL1       -0.2695
     13  H         28.2350   15.1370   21.9320 H       1  MOL1        0.1564
     14  H         28.1990   17.4500   21.3760 H       1  MOL1        0.1502
     15  C         28.4320   13.6300   20.4860 C.ar    1  MOL1        0.0353
     16  C         28.9400   13.2520   19.2370 C.ar    1  MOL1       -0.0404
     17  C         29.2130   11.9080   18.9650 C.ar    1  MOL1       -0.0595
     18  C         28.9420   10.9290   19.9230 C.ar    1  MOL1       -0.0500
     19  C         28.3910   11.2910   21.1580 C.ar    1  MOL1        0.0566
     20  C         28.1560   12.6400   21.4360 C.ar    1  MOL1       -0.0288
     21  C         28.0440   10.2330   22.2140 C.3     1  MOL1        0.4175
     22  F         27.7090    9.0480   21.6330 F       1  MOL1       -0.1659
     23  F         26.9930   10.6610   22.9640 F       1  MOL1       -0.1659
     24  F         29.1200   10.0450   23.0220 F       1  MOL1       -0.1659
     25  C         24.1340   21.4650   17.1390 C.ar    1  MOL1        0.0661
     26  C         23.4260   20.5420   17.9140 C.ar    1  MOL1       -0.0344
     27  C         22.0380   20.4310   17.7890 C.ar    1  MOL1       -0.0334
     28  C         21.3480   21.2530   16.8940 C.ar    1  MOL1        0.1051
     29  C         22.0510   22.1950   16.1360 C.ar    1  MOL1       -0.0334
     30  C         23.4360   22.3200   16.2790 C.ar    1  MOL1       -0.0344
     31  S         19.5940   21.0690   16.6790 S.O2    1  MOL1        0.0559
     32  O         19.0240   20.4890   17.8780 O.2     1  MOL1       -0.1533
     33  O         19.0490   22.3010   16.1460 O.2     1  MOL1       -0.1533
     34  N         19.5700   19.9480   15.5060 N.3     1  MOL1       -0.2035
     35  H         19.0640   19.0980   15.6410 H       1  MOL1        0.1442
     36  H         20.0930   20.0940   14.6680 H       1  MOL1        0.1442
     37  C         26.1350   22.7240   15.1190 C.ar    1  MOL1        0.0005
     38  C         26.2230   24.1140   14.9740 C.ar    1  MOL1       -0.0526
     39  C         26.0560   24.7050   13.7170 C.ar    1  MOL1       -0.0611
     40  C         25.7570   23.9100   12.6070 C.ar    1  MOL1       -0.0617
     41  C         25.6280   22.5270   12.7550 C.ar    1  MOL1       -0.0611
     42  C         25.8190   21.9350   14.0060 C.ar    1  MOL1       -0.0526
     43  H         28.5230   22.3770   16.6560 H       1  MOL1        0.0657
     44  H         28.4880   21.7500   20.0290 H       1  MOL1        0.0329
     45  H         29.2750   20.6070   18.8880 H       1  MOL1        0.0329
     46  H         28.4430   19.6410   21.1380 H       1  MOL1        0.0284
     47  H         26.7810   19.8640   20.4940 H       1  MOL1        0.0284
     48  H         28.8780   18.2960   18.9140 H       1  MOL1        0.0462
     49  H         27.0870   18.2210   18.7970 H       1  MOL1        0.0462
     50  H         29.1220   14.0040   18.4780 H       1  MOL1        0.0636
     51  H         29.6370   11.6260   18.0080 H       1  MOL1        0.0618
     52  H         29.1580    9.8880   19.7110 H       1  MOL1        0.0623
     53  H         27.7530   12.9240   22.4020 H       1  MOL1        0.0642
     54  H         23.9550   19.9090   18.6160 H       1  MOL1        0.0639
     55  H         21.4970   19.7060   18.3860 H       1  MOL1        0.0638
     56  H         21.5200   22.8300   15.4360 H       1  MOL1        0.0638
     57  H         23.9700   23.0820   15.7230 H       1  MOL1        0.0639
     58  H         26.4220   24.7350   15.8400 H       1  MOL1        0.0624
     59  H         26.1580   25.7780   13.6040 H       1  MOL1        0.0618
     60  H         25.6250   24.3670   11.6320 H       1  MOL1        0.0618
     61  H         25.3790   21.9120   11.8980 H       1  MOL1        0.0618
     62  H         25.7240   20.8610   14.1160 H       1  MOL1        0.0624
@<TRIPOS>BOND
     1    60    40    1
     2    61    41    1
     3    40    41   ar
     4    40    39   ar
     5    41    42   ar
     6    59    39    1
     7    39    38   ar
     8    42    62    1
     9    42    37   ar
    10    36    34    1
    11    38    37   ar
    12    38    58    1
    13    37     5    1
    14    56    29    1
    15    34    35    1
    16    34    31    1
    17    57    30    1
    18    29    30   ar
    19    29    28   ar
    20    33    31    2
    21    30    25   ar
    22     5     4   ar
    23     5     1   ar
    24    43     4    1
    25    31    28    1
    26    31    32    2
    27    28    27   ar
    28     4     3   ar
    29    25     1    1
    30    25    26   ar
    31     1     2   ar
    32    27    26   ar
    33    27    55    1
    34    26    54    1
    35    51    17    1
    36     3     2   ar
    37     3     6    1
    38    50    16    1
    39    11    10    2
    40    49     8    1
    41    45     6    1
    42    48     8    1
    43    17    16   ar
    44    17    18   ar
    45    16    15   ar
    46     6    44    1
    47     6     7    1
    48     8     7    1
    49     8     9    1
    50    52    18    1
    51    10     9   am
    52    10    12   am
    53    18    19   ar
    54     7    47    1
    55     7    46    1
    56     9    14    1
    57    15    12    1
    58    15    20   ar
    59    12    13    1
    60    19    20   ar
    61    19    21    1
    62    20    53    1
    63    22    21    1
    64    21    23    1
    65    21    24    1
