@<TRIPOS>MOLECULE
T_21h_ligand.pdb
 59 62 0 0 0
SMALL
GASTEIGER

@<TRIPOS>ATOM
      1  N         25.4820   21.5180   17.2410 N.ar    1  MOL1       -0.2319
      2  N         26.1060   21.0270   18.3320 N.ar    1  MOL1       -0.1708
      3  C         27.3480   21.2800   18.2930 C.ar    1  MOL1        0.0641
      4  C         27.5810   21.9990   17.0360 C.ar    1  MOL1       -0.0127
      5  C         26.3750   22.0780   16.4670 C.ar    1  MOL1        0.0749
      6  C         28.2960   20.8470   19.3790 C.3     1  MOL1       -0.0072
      7  C         27.7810   19.6120   20.1660 C.3     1  MOL1       -0.0319
      8  C         28.0500   18.2910   19.4010 C.3     1  MOL1        0.0134
      9  N         27.9710   17.1670   20.3350 N.am    1  MOL1       -0.2991
     10  C         28.1580   15.9000   19.8930 C.2     1  MOL1        0.3039
     11  O         28.3090   15.7010   18.7000 O.2     1  MOL1       -0.2525
     12  N         28.1860   14.9120   20.7510 N.am    1  MOL1       -0.2695
     13  H         28.0930   15.1080   21.7560 H       1  MOL1        0.1564
     14  H         27.8100   17.3720   21.3010 H       1  MOL1        0.1502
     15  C         28.2690   13.5840   20.4820 C.ar    1  MOL1        0.0348
     16  C         28.3620   13.1100   19.1680 C.ar    1  MOL1       -0.0391
     17  C         28.4810   11.7410   18.9140 C.ar    1  MOL1       -0.0416
     18  C         28.4700   10.8300   19.9760 C.ar    1  MOL1        0.0411
     19  C         28.3440   11.2940   21.2870 C.ar    1  MOL1       -0.0416
     20 Cl         28.6130    9.1120   19.6600 Cl      1  MOL1       -0.0835
     21  C         28.2470   12.6660   21.5380 C.ar    1  MOL1       -0.0391
     22  C         24.1330   21.4580   17.1510 C.ar    1  MOL1        0.0661
     23  C         23.4330   20.5570   17.9590 C.ar    1  MOL1       -0.0344
     24  C         22.0450   20.4420   17.8510 C.ar    1  MOL1       -0.0334
     25  C         21.3450   21.2410   16.9410 C.ar    1  MOL1        0.1051
     26  C         22.0400   22.1580   16.1480 C.ar    1  MOL1       -0.0334
     27  C         23.4260   22.2870   16.2720 C.ar    1  MOL1       -0.0344
     28  S         19.5840   21.0630   16.7890 S.O2    1  MOL1        0.0559
     29  O         19.0330   20.6410   18.0630 O.2     1  MOL1       -0.1533
     30  O         19.0580   22.2410   16.1300 O.2     1  MOL1       -0.1533
     31  N         19.4890   19.8060   15.7570 N.3     1  MOL1       -0.2035
     32  H         19.9990   19.8260   14.8970 H       1  MOL1        0.1442
     33  H         18.9130   19.0190   15.9800 H       1  MOL1        0.1442
     34  C         26.1360   22.7250   15.1170 C.ar    1  MOL1        0.0005
     35  C         25.8350   21.9390   13.9990 C.ar    1  MOL1       -0.0526
     36  C         25.5670   22.5390   12.7650 C.ar    1  MOL1       -0.0611
     37  C         25.6380   23.9280   12.6340 C.ar    1  MOL1       -0.0617
     38  C         25.9720   24.7160   13.7400 C.ar    1  MOL1       -0.0611
     39  C         26.2150   24.1150   14.9780 C.ar    1  MOL1       -0.0526
     40  H         28.5210   22.3790   16.6540 H       1  MOL1        0.0657
     41  H         28.4300   21.6820   20.0820 H       1  MOL1        0.0329
     42  H         29.2640   20.5940   18.9200 H       1  MOL1        0.0329
     43  H         28.2920   19.5710   21.1380 H       1  MOL1        0.0284
     44  H         26.6970   19.7170   20.3250 H       1  MOL1        0.0284
     45  H         29.0520   18.3250   18.9510 H       1  MOL1        0.0462
     46  H         27.2960   18.1640   18.6100 H       1  MOL1        0.0462
     47  H         28.3420   13.8110   18.3410 H       1  MOL1        0.0636
     48  H         28.5830   11.3850   17.8950 H       1  MOL1        0.0633
     49  H         28.3230   10.5900   22.1100 H       1  MOL1        0.0633
     50  H         28.1530   13.0210   22.5580 H       1  MOL1        0.0636
     51  H         23.9700   19.9440   18.6740 H       1  MOL1        0.0639
     52  H         21.5100   19.7340   18.4730 H       1  MOL1        0.0638
     53  H         21.5020   22.7710   15.4340 H       1  MOL1        0.0638
     54  H         23.9540   23.0300   15.6870 H       1  MOL1        0.0639
     55  H         25.8100   20.8590   14.0900 H       1  MOL1        0.0624
     56  H         25.3050   21.9260   11.9100 H       1  MOL1        0.0618
     57  H         25.4330   24.3940   11.6770 H       1  MOL1        0.0618
     58  H         26.0420   25.7930   13.6370 H       1  MOL1        0.0618
     59  H         26.4680   24.7280   15.8350 H       1  MOL1        0.0624
@<TRIPOS>BOND
     1    57    37    1
     2    56    36    1
     3    37    36   ar
     4    37    38   ar
     5    36    35   ar
     6    58    38    1
     7    38    39   ar
     8    35    55    1
     9    35    34   ar
    10    32    31    1
    11    39    34   ar
    12    39    59    1
    13    34     5    1
    14    53    26    1
    15    54    27    1
    16    31    33    1
    17    31    28    1
    18    30    28    2
    19    26    27   ar
    20    26    25   ar
    21    27    22   ar
    22     5     4   ar
    23     5     1   ar
    24    40     4    1
    25    28    25    1
    26    28    29    2
    27    25    24   ar
    28     4     3   ar
    29    22     1    1
    30    22    23   ar
    31     1     2   ar
    32    24    23   ar
    33    24    52    1
    34    48    17    1
    35    23    51    1
    36     3     2   ar
    37     3     6    1
    38    47    16    1
    39    46     8    1
    40    11    10    2
    41    17    16   ar
    42    17    18   ar
    43    42     6    1
    44    45     8    1
    45    16    15   ar
    46     6    41    1
    47     6     7    1
    48     8     7    1
    49     8     9    1
    50    20    18    1
    51    10     9   am
    52    10    12   am
    53    18    19   ar
    54     7    44    1
    55     7    43    1
    56     9    14    1
    57    15    12    1
    58    15    21   ar
    59    12    13    1
    60    19    21   ar
    61    19    49    1
    62    21    50    1
