@<TRIPOS>MOLECULE
T_21f_ligand.pdb
 73 78 0 0 0
SMALL
GASTEIGER

@<TRIPOS>ATOM
      1  N         25.4830   21.5190   17.2420 N.ar    1  MOL1       -0.2319
      2  N         26.1080   21.0270   18.3330 N.ar    1  MOL1       -0.1708
      3  C         27.3490   21.2770   18.2920 C.ar    1  MOL1        0.0641
      4  C         27.5830   21.9940   17.0370 C.ar    1  MOL1       -0.0127
      5  C         26.3760   22.0780   16.4670 C.ar    1  MOL1        0.0749
      6  C         28.3060   20.8180   19.3600 C.3     1  MOL1       -0.0072
      7  C         27.7680   19.6120   20.1730 C.3     1  MOL1       -0.0319
      8  C         27.9680   18.2630   19.4330 C.3     1  MOL1        0.0134
      9  N         28.0090   17.1730   20.4100 N.am    1  MOL1       -0.2994
     10  C         28.2060   15.8960   20.0010 C.2     1  MOL1        0.3000
     11  O         28.3960   15.6970   18.8140 O.2     1  MOL1       -0.2529
     12  N         28.1850   14.9310   20.8860 N.am    1  MOL1       -0.2938
     13  H         28.0140   15.1830   21.8700 H       1  MOL1        0.1508
     14  H         27.9240   17.4140   21.3790 H       1  MOL1        0.1502
     15  C         28.3910   13.5000   20.5890 C.3     1  MOL1        0.0368
     16  C         29.8620   13.1680   20.9710 C.3     1  MOL1       -0.0287
     17  C         30.1290   11.6450   20.8460 C.3     1  MOL1       -0.0386
     18  C         29.1740   10.8710   21.7940 C.3     1  MOL1       -0.0472
     19  C         29.8880   11.1930   19.3820 C.3     1  MOL1       -0.0472
     20  C         27.7060   11.1750   21.3970 C.3     1  MOL1       -0.0386
     21  C         27.4380   12.7000   21.5230 C.3     1  MOL1       -0.0287
     22  C         27.4570   10.7200   19.9350 C.3     1  MOL1       -0.0472
     23  C         28.4190   11.4960   18.9980 C.3     1  MOL1       -0.0386
     24  C         28.1510   13.0190   19.1250 C.3     1  MOL1       -0.0287
     25  C         24.1410   21.3970   17.1210 C.ar    1  MOL1        0.0661
     26  C         23.4590   22.2170   16.2190 C.ar    1  MOL1       -0.0344
     27  C         22.0660   22.1460   16.1160 C.ar    1  MOL1       -0.0334
     28  C         21.3480   21.2460   16.9080 C.ar    1  MOL1        0.1051
     29  C         22.0310   20.4040   17.7900 C.ar    1  MOL1       -0.0334
     30  C         23.4250   20.4610   17.8760 C.ar    1  MOL1       -0.0344
     31  S         19.5760   21.1950   16.7970 S.O2    1  MOL1        0.0559
     32  O         19.0310   20.6900   18.0410 O.2     1  MOL1       -0.1533
     33  O         19.1120   22.4610   16.2670 O.2     1  MOL1       -0.1533
     34  N         19.3700   20.0510   15.6540 N.3     1  MOL1       -0.2035
     35  H         19.9190   20.0750   14.8190 H       1  MOL1        0.1442
     36  H         18.6990   19.3220   15.7910 H       1  MOL1        0.1442
     37  C         26.1340   22.7250   15.1190 C.ar    1  MOL1        0.0005
     38  C         26.2060   24.1160   14.9800 C.ar    1  MOL1       -0.0526
     39  C         26.0370   24.7090   13.7260 C.ar    1  MOL1       -0.0611
     40  C         25.7530   23.9170   12.6100 C.ar    1  MOL1       -0.0617
     41  C         25.6390   22.5300   12.7530 C.ar    1  MOL1       -0.0611
     42  C         25.8330   21.9370   14.0030 C.ar    1  MOL1       -0.0526
     43  H         28.5240   22.3730   16.6550 H       1  MOL1        0.0657
     44  H         28.4870   21.6540   20.0520 H       1  MOL1        0.0329
     45  H         29.2520   20.5260   18.8820 H       1  MOL1        0.0329
     46  H         28.2990   19.5700   21.1350 H       1  MOL1        0.0284
     47  H         26.6930   19.7590   20.3540 H       1  MOL1        0.0284
     48  H         28.9150   18.2880   18.8730 H       1  MOL1        0.0462
     49  H         27.1340   18.1000   18.7350 H       1  MOL1        0.0462
     50  H         30.5410   13.7110   20.2960 H       1  MOL1        0.0288
     51  H         30.0460   13.4840   22.0080 H       1  MOL1        0.0288
     52  H         31.1710   11.4330   21.1270 H       1  MOL1        0.0302
     53  H         29.3480   11.1890   22.8320 H       1  MOL1        0.0271
     54  H         29.3630    9.7910   21.7040 H       1  MOL1        0.0271
     55  H         30.0770   10.1120   19.2930 H       1  MOL1        0.0271
     56  H         30.5660   11.7400   18.7110 H       1  MOL1        0.0271
     57  H         27.0260   10.6300   22.0680 H       1  MOL1        0.0302
     58  H         26.3950   12.9080   21.2410 H       1  MOL1        0.0288
     59  H         27.6060   13.0110   22.5640 H       1  MOL1        0.0288
     60  H         27.6470    9.6410   19.8470 H       1  MOL1        0.0271
     61  H         26.4160   10.9340   19.6540 H       1  MOL1        0.0271
     62  H         28.2430   11.1830   17.9590 H       1  MOL1        0.0302
     63  H         28.8290   13.5620   18.4510 H       1  MOL1        0.0288
     64  H         27.1080   13.2280   18.8420 H       1  MOL1        0.0288
     65  H         24.0110   22.9110   15.5960 H       1  MOL1        0.0639
     66  H         21.5420   22.7920   15.4210 H       1  MOL1        0.0638
     67  H         21.4780   19.7060   18.4090 H       1  MOL1        0.0638
     68  H         23.9540   19.7770   18.5300 H       1  MOL1        0.0639
     69  H         26.3940   24.7360   15.8480 H       1  MOL1        0.0624
     70  H         26.1270   25.7840   13.6180 H       1  MOL1        0.0618
     71  H         25.6210   24.3750   11.6360 H       1  MOL1        0.0618
     72  H         25.4010   21.9150   11.8930 H       1  MOL1        0.0618
     73  H         25.7500   20.8600   14.1090 H       1  MOL1        0.0624
@<TRIPOS>BOND
     1    71    40    1
     2    72    41    1
     3    40    41   ar
     4    40    39   ar
     5    41    42   ar
     6    70    39    1
     7    39    38   ar
     8    42    73    1
     9    42    37   ar
    10    35    34    1
    11    38    37   ar
    12    38    69    1
    13    37     5    1
    14    66    27    1
    15    65    26    1
    16    34    36    1
    17    34    31    1
    18    27    26   ar
    19    27    28   ar
    20    26    25   ar
    21    33    31    2
    22     5     4   ar
    23     5     1   ar
    24    43     4    1
    25    31    28    1
    26    31    32    2
    27    28    29   ar
    28     4     3   ar
    29    25     1    1
    30    25    30   ar
    31     1     2   ar
    32    29    30   ar
    33    29    67    1
    34    30    68    1
    35    62    23    1
    36     3     2   ar
    37     3     6    1
    38    63    24    1
    39    56    19    1
    40    49     8    1
    41    11    10    2
    42    64    24    1
    43    48     8    1
    44    45     6    1
    45    23    24    1
    46    23    19    1
    47    23    22    1
    48    24    15    1
    49    55    19    1
    50     6    44    1
    51     6     7    1
    52    19    17    1
    53     8     7    1
    54     8     9    1
    55    61    22    1
    56    60    22    1
    57    22    20    1
    58    10     9   am
    59    10    12   am
    60     7    47    1
    61     7    46    1
    62    50    16    1
    63     9    14    1
    64    15    12    1
    65    15    16    1
    66    15    21    1
    67    17    16    1
    68    17    52    1
    69    17    18    1
    70    12    13    1
    71    16    51    1
    72    58    21    1
    73    20    21    1
    74    20    18    1
    75    20    57    1
    76    21    59    1
    77    54    18    1
    78    18    53    1
