@<TRIPOS>MOLECULE
T_21c_ligand.pdb
 65 68 0 0 0
SMALL
GASTEIGER

@<TRIPOS>ATOM
      1  N         25.4830   21.5180   17.2420 N.ar    1  MOL1       -0.2319
      2  N         26.1060   21.0270   18.3330 N.ar    1  MOL1       -0.1708
      3  C         27.3470   21.2780   18.2950 C.ar    1  MOL1        0.0641
      4  C         27.5830   21.9970   17.0380 C.ar    1  MOL1       -0.0127
      5  C         26.3760   22.0790   16.4670 C.ar    1  MOL1        0.0749
      6  C         28.3300   20.8810   19.3630 C.3     1  MOL1       -0.0072
      7  C         27.8570   19.6570   20.1910 C.3     1  MOL1       -0.0319
      8  C         27.9300   18.2680   19.5070 C.3     1  MOL1        0.0134
      9  N         28.0360   17.1710   20.4700 N.am    1  MOL1       -0.2991
     10  C         28.2240   15.9010   20.0370 C.2     1  MOL1        0.3039
     11  O         28.3650   15.6900   18.8440 O.2     1  MOL1       -0.2525
     12  N         28.2620   14.9190   20.8970 N.am    1  MOL1       -0.2695
     13  H         28.1760   15.1230   21.9030 H       1  MOL1        0.1564
     14  H         28.0000   17.3990   21.4440 H       1  MOL1        0.1502
     15  C         28.4690   13.5980   20.6630 C.ar    1  MOL1        0.0353
     16  C         28.9400   13.1420   19.4270 C.ar    1  MOL1       -0.0404
     17  C         29.1890   11.7820   19.2240 C.ar    1  MOL1       -0.0595
     18  C         28.9250   10.8620   20.2430 C.ar    1  MOL1       -0.0500
     19  C         28.4050   11.3010   21.4660 C.ar    1  MOL1        0.0566
     20  C         28.1940   12.6690   21.6710 C.ar    1  MOL1       -0.0288
     21  C         28.0650   10.3060   22.5820 C.3     1  MOL1        0.4175
     22  F         27.8880    9.0510   22.0860 F       1  MOL1       -0.1659
     23  F         26.9220   10.6910   23.2110 F       1  MOL1       -0.1659
     24  F         29.0840   10.2900   23.4840 F       1  MOL1       -0.1659
     25  C         24.1340   21.4710   17.1380 C.ar    1  MOL1        0.0661
     26  C         23.4200   20.5530   17.9150 C.ar    1  MOL1       -0.0344
     27  C         22.0330   20.4460   17.7840 C.ar    1  MOL1       -0.0334
     28  C         21.3480   21.2690   16.8850 C.ar    1  MOL1        0.1051
     29  C         22.0550   22.2090   16.1300 C.ar    1  MOL1       -0.0334
     30  C         23.4410   22.3280   16.2760 C.ar    1  MOL1       -0.0344
     31  S         19.5910   21.0920   16.6970 S.O2    1  MOL1        0.0559
     32  O         19.0400   20.4780   17.8870 O.2     1  MOL1       -0.1533
     33  O         19.0520   22.3480   16.2140 O.2     1  MOL1       -0.1533
     34  N         19.5180   20.0010   15.4850 N.3     1  MOL1       -0.2035
     35  H         18.8450   19.2630   15.5190 H       1  MOL1        0.1442
     36  H         20.1500   20.0680   14.7140 H       1  MOL1        0.1442
     37  C         26.1330   22.7240   15.1190 C.ar    1  MOL1        0.0005
     38  C         25.8410   21.9380   13.9980 C.ar    1  MOL1       -0.0523
     39  C         25.5630   22.5380   12.7670 C.ar    1  MOL1       -0.0582
     40  C         25.6090   23.9300   12.6330 C.ar    1  MOL1       -0.0504
     41  C         25.9450   24.7110   13.7430 C.ar    1  MOL1       -0.0582
     42  C         25.3030   24.6120   11.2950 C.3     1  MOL1       -0.0397
     43  C         26.2020   24.1150   14.9800 C.ar    1  MOL1       -0.0523
     44  H         28.5230   22.3770   16.6570 H       1  MOL1        0.0657
     45  H         28.4720   21.7320   20.0450 H       1  MOL1        0.0329
     46  H         29.2890   20.6320   18.8840 H       1  MOL1        0.0329
     47  H         28.4770   19.6130   21.0980 H       1  MOL1        0.0284
     48  H         26.8080   19.8330   20.4710 H       1  MOL1        0.0284
     49  H         28.8250   18.2190   18.8690 H       1  MOL1        0.0462
     50  H         27.0320   18.1130   18.8910 H       1  MOL1        0.0462
     51  H         29.1120   13.8470   18.6220 H       1  MOL1        0.0636
     52  H         29.5870   11.4390   18.2760 H       1  MOL1        0.0618
     53  H         29.1240    9.8080   20.0860 H       1  MOL1        0.0623
     54  H         27.8130   13.0130   22.6260 H       1  MOL1        0.0642
     55  H         23.9450   19.9210   18.6210 H       1  MOL1        0.0639
     56  H         21.4870   19.7240   18.3800 H       1  MOL1        0.0638
     57  H         21.5290   22.8480   15.4290 H       1  MOL1        0.0638
     58  H         23.9810   23.0860   15.7190 H       1  MOL1        0.0639
     59  H         25.8310   20.8570   14.0860 H       1  MOL1        0.0624
     60  H         25.3100   21.9220   11.9120 H       1  MOL1        0.0620
     61  H         26.0050   25.7890   13.6430 H       1  MOL1        0.0620
     62  H         25.3970   25.7030   11.4100 H       1  MOL1        0.0278
     63  H         24.2790   24.3630   10.9820 H       1  MOL1        0.0278
     64  H         26.0150   24.2620   10.5340 H       1  MOL1        0.0278
     65  H         26.4560   24.7310   15.8350 H       1  MOL1        0.0624
@<TRIPOS>BOND
     1    64    42    1
     2    63    42    1
     3    42    62    1
     4    42    40    1
     5    60    39    1
     6    40    39   ar
     7    40    41   ar
     8    39    38   ar
     9    61    41    1
    10    41    43   ar
    11    38    59    1
    12    38    37   ar
    13    36    34    1
    14    43    37   ar
    15    43    65    1
    16    37     5    1
    17    57    29    1
    18    34    35    1
    19    34    31    1
    20    58    30    1
    21    29    30   ar
    22    29    28   ar
    23    33    31    2
    24    30    25   ar
    25     5     4   ar
    26     5     1   ar
    27    44     4    1
    28    31    28    1
    29    31    32    2
    30    28    27   ar
    31     4     3   ar
    32    25     1    1
    33    25    26   ar
    34     1     2   ar
    35    27    26   ar
    36    27    56    1
    37    26    55    1
    38    52    17    1
    39     3     2   ar
    40     3     6    1
    41    51    16    1
    42    11    10    2
    43    49     8    1
    44    46     6    1
    45    50     8    1
    46    17    16   ar
    47    17    18   ar
    48     6    45    1
    49     6     7    1
    50    16    15   ar
    51     8     7    1
    52     8     9    1
    53    10     9   am
    54    10    12   am
    55    53    18    1
    56     7    48    1
    57     7    47    1
    58    18    19   ar
    59     9    14    1
    60    15    12    1
    61    15    20   ar
    62    12    13    1
    63    19    20   ar
    64    19    21    1
    65    20    54    1
    66    22    21    1
    67    21    23    1
    68    21    24    1
