@<TRIPOS>MOLECULE
T_21g_ligand.pdb
 70 72 0 0 0
SMALL
GASTEIGER

@<TRIPOS>ATOM
      1  N         25.4820   21.5190   17.2400 N.ar    1  MOL1       -0.2319
      2  N         26.1060   21.0270   18.3330 N.ar    1  MOL1       -0.1708
      3  C         27.3460   21.2770   18.2930 C.ar    1  MOL1        0.0641
      4  C         27.5820   21.9970   17.0380 C.ar    1  MOL1       -0.0127
      5  C         26.3750   22.0790   16.4660 C.ar    1  MOL1        0.0749
      6  C         28.2900   20.8380   19.3810 C.3     1  MOL1       -0.0072
      7  C         27.7630   19.6150   20.1760 C.3     1  MOL1       -0.0319
      8  C         28.0320   18.2870   19.4220 C.3     1  MOL1        0.0134
      9  N         27.9930   17.1750   20.3730 N.am    1  MOL1       -0.2994
     10  C         28.1700   15.9050   19.9390 C.2     1  MOL1        0.2999
     11  O         28.3370   15.6950   18.7500 O.2     1  MOL1       -0.2529
     12  N         28.1580   14.9180   20.7980 N.am    1  MOL1       -0.2966
     13  H         28.0150   15.1180   21.7970 H       1  MOL1        0.1505
     14  H         27.8720   17.3870   21.3430 H       1  MOL1        0.1502
     15  C         28.3610   13.5250   20.3890 C.3     1  MOL1        0.0243
     16  C         29.8470   13.1450   20.6330 C.3     1  MOL1       -0.0373
     17  C         29.9810   11.7040   21.1890 C.3     1  MOL1       -0.0636
     18  C         27.9790   13.3640   18.8920 C.3     1  MOL1       -0.0345
     19  C         27.6710   11.8810   18.5450 C.3     1  MOL1       -0.0516
     20  C         26.9650   11.7580   17.1660 C.3     1  MOL1       -0.0559
     21  C         27.2920   10.4040   16.4840 C.3     1  MOL1       -0.0653
     22  C         24.1390   21.3890   17.1320 C.ar    1  MOL1        0.0661
     23  C         23.4480   22.1910   16.2180 C.ar    1  MOL1       -0.0344
     24  C         22.0560   22.1060   16.1180 C.ar    1  MOL1       -0.0334
     25  C         21.3490   21.2100   16.9210 C.ar    1  MOL1        0.1051
     26  C         22.0390   20.3920   17.8210 C.ar    1  MOL1       -0.0334
     27  C         23.4320   20.4610   17.9060 C.ar    1  MOL1       -0.0344
     28  S         19.5780   21.1340   16.8060 S.O2    1  MOL1        0.0559
     29  O         19.0360   20.6300   18.0520 O.2     1  MOL1       -0.1533
     30  O         19.0960   22.3880   16.2630 O.2     1  MOL1       -0.1533
     31  N         19.3950   19.9770   15.6720 N.3     1  MOL1       -0.2035
     32  H         19.9440   20.0060   14.8360 H       1  MOL1        0.1442
     33  H         18.7420   19.2360   15.8150 H       1  MOL1        0.1442
     34  C         26.1370   22.7250   15.1180 C.ar    1  MOL1        0.0005
     35  C         25.8370   21.9390   14.0000 C.ar    1  MOL1       -0.0526
     36  C         25.5690   22.5390   12.7660 C.ar    1  MOL1       -0.0611
     37  C         25.6390   23.9280   12.6340 C.ar    1  MOL1       -0.0617
     38  C         25.9740   24.7140   13.7400 C.ar    1  MOL1       -0.0611
     39  C         26.2170   24.1150   14.9790 C.ar    1  MOL1       -0.0526
     40  H         28.5230   22.3770   16.6590 H       1  MOL1        0.0657
     41  H         28.4350   21.6760   20.0790 H       1  MOL1        0.0329
     42  H         29.2540   20.5710   18.9230 H       1  MOL1        0.0329
     43  H         28.2660   19.5800   21.1520 H       1  MOL1        0.0284
     44  H         26.6790   19.7270   20.3260 H       1  MOL1        0.0284
     45  H         29.0230   18.3290   18.9470 H       1  MOL1        0.0462
     46  H         27.2610   18.1380   18.6520 H       1  MOL1        0.0462
     47  H         27.7190   12.8690   20.9940 H       1  MOL1        0.0498
     48  H         30.2820   13.8500   21.3580 H       1  MOL1        0.0280
     49  H         30.3940   13.2140   19.6820 H       1  MOL1        0.0280
     50  H         31.0440   11.4710   21.3490 H       1  MOL1        0.0230
     51  H         29.5540   10.9920   20.4680 H       1  MOL1        0.0230
     52  H         29.4410   11.6280   22.1440 H       1  MOL1        0.0230
     53  H         27.0880   13.9740   18.6810 H       1  MOL1        0.0283
     54  H         28.8170   13.7110   18.2690 H       1  MOL1        0.0283
     55  H         28.6150   11.3160   18.5160 H       1  MOL1        0.0266
     56  H         27.0160   11.4600   19.3210 H       1  MOL1        0.0266
     57  H         27.3030   12.5770   16.5150 H       1  MOL1        0.0263
     58  H         25.8770   11.8310   17.3130 H       1  MOL1        0.0263
     59  H         26.7780   10.3480   15.5130 H       1  MOL1        0.0230
     60  H         26.9520    9.5780   17.1260 H       1  MOL1        0.0230
     61  H         28.3780   10.3250   16.3290 H       1  MOL1        0.0230
     62  H         23.9950   22.8810   15.5850 H       1  MOL1        0.0639
     63  H         21.5250   22.7370   15.4150 H       1  MOL1        0.0638
     64  H         21.4920   19.7040   18.4540 H       1  MOL1        0.0638
     65  H         23.9670   19.7950   18.5740 H       1  MOL1        0.0639
     66  H         25.8130   20.8590   14.0910 H       1  MOL1        0.0624
     67  H         25.3050   21.9260   11.9120 H       1  MOL1        0.0618
     68  H         25.4360   24.3940   11.6770 H       1  MOL1        0.0618
     69  H         26.0440   25.7910   13.6380 H       1  MOL1        0.0618
     70  H         26.4690   24.7300   15.8360 H       1  MOL1        0.0624
@<TRIPOS>BOND
     1    68    37    1
     2    67    36    1
     3    37    36   ar
     4    37    38   ar
     5    36    35   ar
     6    69    38    1
     7    38    39   ar
     8    35    66    1
     9    35    34   ar
    10    32    31    1
    11    39    34   ar
    12    39    70    1
    13    34     5    1
    14    63    24    1
    15    59    21    1
    16    62    23    1
    17    31    33    1
    18    31    28    1
    19    24    23   ar
    20    24    25   ar
    21    23    22   ar
    22    30    28    2
    23    61    21    1
    24     5     4   ar
    25     5     1   ar
    26    21    60    1
    27    21    20    1
    28    57    20    1
    29    40     4    1
    30    28    25    1
    31    28    29    2
    32    25    26   ar
    33     4     3   ar
    34    22     1    1
    35    22    27   ar
    36    20    58    1
    37    20    19    1
    38     1     2   ar
    39    26    27   ar
    40    26    64    1
    41    27    65    1
    42    54    18    1
    43     3     2   ar
    44     3     6    1
    45    55    19    1
    46    19    18    1
    47    19    56    1
    48    46     8    1
    49    53    18    1
    50    11    10    2
    51    18    15    1
    52    42     6    1
    53    45     8    1
    54     6    41    1
    55     6     7    1
    56     8     7    1
    57     8     9    1
    58    49    16    1
    59    10     9   am
    60    10    12   am
    61     7    44    1
    62     7    43    1
    63     9    14    1
    64    15    16    1
    65    15    12    1
    66    15    47    1
    67    51    17    1
    68    16    17    1
    69    16    48    1
    70    12    13    1
    71    17    50    1
    72    17    52    1
