@<TRIPOS>MOLECULE
T_21i_ligand.pdb
 62 65 0 0 0
SMALL
GASTEIGER

@<TRIPOS>ATOM
      1  N         25.4820   21.5190   17.2410 N.ar    1  MOL1       -0.2319
      2  N         26.1080   21.0260   18.3320 N.ar    1  MOL1       -0.1708
      3  C         27.3480   21.2780   18.2920 C.ar    1  MOL1        0.0641
      4  C         27.5820   21.9970   17.0340 C.ar    1  MOL1       -0.0127
      5  C         26.3750   22.0790   16.4670 C.ar    1  MOL1        0.0749
      6  C         28.3020   20.8420   19.3720 C.3     1  MOL1       -0.0072
      7  C         27.8370   19.6270   20.2160 C.3     1  MOL1       -0.0319
      8  C         28.0660   18.2870   19.4680 C.3     1  MOL1        0.0134
      9  N         27.9700   17.1820   20.4210 N.am    1  MOL1       -0.2991
     10  C         28.1370   15.9040   20.0000 C.2     1  MOL1        0.3039
     11  O         28.2820   15.6780   18.8120 O.2     1  MOL1       -0.2525
     12  N         28.1510   14.9280   20.8690 N.am    1  MOL1       -0.2695
     13  H         28.0620   15.1390   21.8720 H       1  MOL1        0.1564
     14  H         27.8180   17.4070   21.3840 H       1  MOL1        0.1502
     15  C         28.2090   13.5850   20.6830 C.ar    1  MOL1        0.0348
     16  C         28.3010   13.0280   19.4020 C.ar    1  MOL1       -0.0399
     17  C         28.3900   11.6420   19.2380 C.ar    1  MOL1       -0.0484
     18  C         28.3510   10.7920   20.3480 C.ar    1  MOL1        0.0549
     19  C         28.2260   11.3460   21.6270 C.ar    1  MOL1       -0.0484
     20  C         28.1610   12.7320   21.7920 C.ar    1  MOL1       -0.0399
     21  C         28.4430    9.2760   20.1390 C.3     1  MOL1        0.4174
     22  F         29.6360    8.8210   20.6060 F       1  MOL1       -0.1659
     23  F         27.4410    8.6210   20.7870 F       1  MOL1       -0.1659
     24  F         28.3560    9.0120   18.8080 F       1  MOL1       -0.1659
     25  C         24.1380   21.3980   17.1350 C.ar    1  MOL1        0.0661
     26  C         23.4480   22.2110   16.2320 C.ar    1  MOL1       -0.0344
     27  C         22.0550   22.1380   16.1390 C.ar    1  MOL1       -0.0334
     28  C         21.3450   21.2400   16.9400 C.ar    1  MOL1        0.1051
     29  C         22.0350   20.4100   17.8290 C.ar    1  MOL1       -0.0334
     30  C         23.4290   20.4680   17.9060 C.ar    1  MOL1       -0.0344
     31  S         19.5730   21.1820   16.8390 S.O2    1  MOL1        0.0559
     32  O         19.0310   20.7830   18.1220 O.2     1  MOL1       -0.1533
     33  O         19.1080   22.3990   16.2040 O.2     1  MOL1       -0.1533
     34  N         19.3660   19.9450   15.7980 N.3     1  MOL1       -0.2035
     35  H         19.8550   19.9390   14.9270 H       1  MOL1        0.1442
     36  H         18.7420   19.1990   16.0290 H       1  MOL1        0.1442
     37  C         26.1360   22.7250   15.1180 C.ar    1  MOL1        0.0005
     38  C         25.8390   21.9410   13.9980 C.ar    1  MOL1       -0.0526
     39  C         25.5720   22.5410   12.7650 C.ar    1  MOL1       -0.0611
     40  C         25.6390   23.9310   12.6360 C.ar    1  MOL1       -0.0617
     41  C         25.9710   24.7180   13.7420 C.ar    1  MOL1       -0.0611
     42  C         26.2140   24.1150   14.9810 C.ar    1  MOL1       -0.0526
     43  H         28.5230   22.3760   16.6520 H       1  MOL1        0.0657
     44  H         28.4520   21.7030   20.0400 H       1  MOL1        0.0329
     45  H         29.2540   20.5890   18.8830 H       1  MOL1        0.0329
     46  H         28.4040   19.6100   21.1590 H       1  MOL1        0.0284
     47  H         26.7650   19.7350   20.4340 H       1  MOL1        0.0284
     48  H         29.0650   18.2900   19.0070 H       1  MOL1        0.0462
     49  H         27.3020   18.1670   18.6870 H       1  MOL1        0.0462
     50  H         28.3020   13.6750   18.5320 H       1  MOL1        0.0636
     51  H         28.4910   11.2240   18.2430 H       1  MOL1        0.0624
     52  H         28.1800   10.6970   22.4950 H       1  MOL1        0.0624
     53  H         28.0720   13.1510   22.7880 H       1  MOL1        0.0636
     54  H         23.9960   22.9020   15.6020 H       1  MOL1        0.0639
     55  H         21.5260   22.7790   15.4440 H       1  MOL1        0.0638
     56  H         21.4880   19.7190   18.4600 H       1  MOL1        0.0638
     57  H         23.9630   19.7920   18.5630 H       1  MOL1        0.0639
     58  H         25.8150   20.8610   14.0870 H       1  MOL1        0.0624
     59  H         25.3130   21.9280   11.9100 H       1  MOL1        0.0618
     60  H         25.4340   24.3980   11.6800 H       1  MOL1        0.0618
     61  H         26.0390   25.7950   13.6410 H       1  MOL1        0.0618
     62  H         26.4650   24.7280   15.8390 H       1  MOL1        0.0624
@<TRIPOS>BOND
     1    60    40    1
     2    59    39    1
     3    40    39   ar
     4    40    41   ar
     5    39    38   ar
     6    61    41    1
     7    41    42   ar
     8    38    58    1
     9    38    37   ar
    10    35    34    1
    11    42    37   ar
    12    42    62    1
    13    37     5    1
    14    55    27    1
    15    54    26    1
    16    34    36    1
    17    34    31    1
    18    27    26   ar
    19    27    28   ar
    20    33    31    2
    21    26    25   ar
    22     5     4   ar
    23     5     1   ar
    24    43     4    1
    25    31    28    1
    26    31    32    2
    27    28    29   ar
    28     4     3   ar
    29    25     1    1
    30    25    30   ar
    31     1     2   ar
    32    29    30   ar
    33    29    56    1
    34    30    57    1
    35    51    17    1
    36     3     2   ar
    37     3     6    1
    38    50    16    1
    39    49     8    1
    40    24    21    1
    41    11    10    2
    42    45     6    1
    43    48     8    1
    44    17    16   ar
    45    17    18   ar
    46     6    44    1
    47     6     7    1
    48    16    15   ar
    49     8     7    1
    50     8     9    1
    51    10     9   am
    52    10    12   am
    53    21    18    1
    54    21    22    1
    55    21    23    1
    56     7    47    1
    57     7    46    1
    58    18    19   ar
    59     9    14    1
    60    15    12    1
    61    15    20   ar
    62    12    13    1
    63    19    20   ar
    64    19    52    1
    65    20    53    1
