@<TRIPOS>MOLECULE
T_21j_ligand.pdb
 63 66 0 0 0
SMALL
GASTEIGER

@<TRIPOS>ATOM
      1  N         25.4830   21.5190   17.2420 N.ar    1  MOL1       -0.2319
      2  N         26.1070   21.0260   18.3330 N.ar    1  MOL1       -0.1708
      3  C         27.3480   21.2780   18.2930 C.ar    1  MOL1        0.0641
      4  C         27.5820   21.9960   17.0370 C.ar    1  MOL1       -0.0127
      5  C         26.3750   22.0780   16.4670 C.ar    1  MOL1        0.0749
      6  C         28.2970   20.8710   19.3880 C.3     1  MOL1       -0.0072
      7  C         27.9820   19.6110   20.2360 C.3     1  MOL1       -0.0319
      8  C         28.1470   18.3090   19.4080 C.3     1  MOL1        0.0134
      9  N         28.0770   17.1560   20.3070 N.am    1  MOL1       -0.2991
     10  C         28.1960   15.8470   19.9780 C.2     1  MOL1        0.3039
     11  O         28.3040   15.5340   18.8040 O.2     1  MOL1       -0.2525
     12  N         28.2010   14.9390   20.9190 N.am    1  MOL1       -0.2695
     13  H         28.1440   15.2280   21.9050 H       1  MOL1        0.1564
     14  H         28.0050   17.4560   21.2590 H       1  MOL1        0.1502
     15  C         28.3140   13.6010   20.7320 C.ar    1  MOL1        0.0350
     16  C         28.3410   12.7150   21.8160 C.ar    1  MOL1       -0.0370
     17  C         28.4180   11.3360   21.6000 C.ar    1  MOL1       -0.0179
     18  C         28.4970   10.8340   20.2970 C.ar    1  MOL1        0.1301
     19  C         28.5100   11.7160   19.2140 C.ar    1  MOL1       -0.0179
     20  C         28.4160   13.0930   19.4320 C.ar    1  MOL1       -0.0370
     21  O         28.5610    9.4610   20.0820 O.3     1  MOL1       -0.4057
     22  C         27.7610    9.0520   18.9650 C.3     1  MOL1        0.5752
     23  F         26.6430    8.4350   19.4350 F       1  MOL1       -0.1328
     24  F         27.3950   10.1340   18.2240 F       1  MOL1       -0.1328
     25  F         28.4550    8.1800   18.1830 F       1  MOL1       -0.1328
     26  C         24.1310   21.4610   17.1780 C.ar    1  MOL1        0.0661
     27  C         23.4450   20.5750   18.0130 C.ar    1  MOL1       -0.0344
     28  C         22.0540   20.4650   17.9310 C.ar    1  MOL1       -0.0334
     29  C         21.3390   21.2510   17.0230 C.ar    1  MOL1        0.1051
     30  C         22.0210   22.1550   16.2040 C.ar    1  MOL1       -0.0334
     31  C         23.4110   22.2800   16.3000 C.ar    1  MOL1       -0.0344
     32  S         19.5750   21.0750   16.9040 S.O2    1  MOL1        0.0559
     33  O         19.0370   20.7480   18.2090 O.2     1  MOL1       -0.1533
     34  O         19.0480   22.2090   16.1680 O.2     1  MOL1       -0.1533
     35  N         19.4620   19.7520   15.9640 N.3     1  MOL1       -0.2035
     36  H         18.8060   19.0310   16.1940 H       1  MOL1        0.1442
     37  H         20.0510   19.6570   15.1640 H       1  MOL1        0.1442
     38  C         26.1350   22.7250   15.1180 C.ar    1  MOL1        0.0005
     39  C         26.1900   24.1160   14.9800 C.ar    1  MOL1       -0.0526
     40  C         26.0170   24.7080   13.7260 C.ar    1  MOL1       -0.0611
     41  C         25.7470   23.9110   12.6070 C.ar    1  MOL1       -0.0617
     42  C         25.6560   22.5240   12.7480 C.ar    1  MOL1       -0.0611
     43  C         25.8520   21.9330   14.0000 C.ar    1  MOL1       -0.0526
     44  H         28.5230   22.3750   16.6550 H       1  MOL1        0.0657
     45  H         28.3650   21.7190   20.0850 H       1  MOL1        0.0329
     46  H         29.2770   20.7040   18.9170 H       1  MOL1        0.0329
     47  H         28.6690   19.5780   21.0940 H       1  MOL1        0.0284
     48  H         26.9460   19.6740   20.5980 H       1  MOL1        0.0284
     49  H         29.1210   18.3180   18.8960 H       1  MOL1        0.0462
     50  H         27.3420   18.2430   18.6620 H       1  MOL1        0.0462
     51  H         28.3020   13.1000   22.8280 H       1  MOL1        0.0637
     52  H         28.4170   10.6550   22.4430 H       1  MOL1        0.0655
     53  H         28.5920   11.3310   18.2030 H       1  MOL1        0.0655
     54  H         28.4230   13.7730   18.5870 H       1  MOL1        0.0637
     55  H         23.9930   19.9720   18.7270 H       1  MOL1        0.0639
     56  H         21.5280   19.7680   18.5740 H       1  MOL1        0.0638
     57  H         21.4710   22.7600   15.4920 H       1  MOL1        0.0638
     58  H         23.9310   23.0120   15.6930 H       1  MOL1        0.0639
     59  H         26.3670   24.7390   15.8490 H       1  MOL1        0.0624
     60  H         26.0930   25.7840   13.6190 H       1  MOL1        0.0618
     61  H         25.6090   24.3690   11.6350 H       1  MOL1        0.0618
     62  H         25.4310   21.9060   11.8860 H       1  MOL1        0.0618
     63  H         25.7850   20.8560   14.1040 H       1  MOL1        0.0624
@<TRIPOS>BOND
     1    61    41    1
     2    62    42    1
     3    41    42   ar
     4    41    40   ar
     5    42    43   ar
     6    60    40    1
     7    40    39   ar
     8    43    63    1
     9    43    38   ar
    10    39    38   ar
    11    39    59    1
    12    38     5    1
    13    37    35    1
    14    57    30    1
    15    58    31    1
    16    35    36    1
    17    35    32    1
    18    34    32    2
    19    30    31   ar
    20    30    29   ar
    21    31    26   ar
    22     5     4   ar
    23     5     1   ar
    24    44     4    1
    25    32    29    1
    26    32    33    2
    27    29    28   ar
    28     4     3   ar
    29    26     1    1
    30    26    27   ar
    31     1     2   ar
    32    28    27   ar
    33    28    56    1
    34    27    55    1
    35    25    22    1
    36    53    19    1
    37    24    22    1
    38     3     2   ar
    39     3     6    1
    40    54    20    1
    41    50     8    1
    42    11    10    2
    43    49     8    1
    44    46     6    1
    45    22    23    1
    46    22    21    1
    47    19    20   ar
    48    19    18   ar
    49     6    45    1
    50     6     7    1
    51     8     7    1
    52     8     9    1
    53    20    15   ar
    54    10     9   am
    55    10    12   am
    56    21    18    1
    57     7    48    1
    58     7    47    1
    59    18    17   ar
    60     9    14    1
    61    15    12    1
    62    15    16   ar
    63    12    13    1
    64    17    16   ar
    65    17    52    1
    66    16    51    1
