@<TRIPOS>MOLECULE
T_7_ligand.pdb
 53 56 0 0 0
SMALL
GASTEIGER

@<TRIPOS>ATOM
      1  N         25.4830   21.5180   17.2410 N.ar    1  MOL1       -0.2303
      2  N         26.1100   21.0300   18.3320 N.ar    1  MOL1       -0.1505
      3  C         27.3530   21.2800   18.3000 C.ar    1  MOL1        0.1490
      4  C         27.5830   21.9960   17.0380 C.ar    1  MOL1        0.0063
      5  C         26.3750   22.0790   16.4670 C.ar    1  MOL1        0.0765
      6  N         28.2220   20.9220   19.2700 N.am    1  MOL1       -0.2525
      7  C         28.0630   19.8960   20.1390 C.2     1  MOL1        0.3092
      8  O         27.0660   19.1990   20.0820 O.2     1  MOL1       -0.2521
      9  N         28.9840   19.6470   21.0350 N.am    1  MOL1       -0.2692
     10  H         29.8420   20.2140   21.0600 H       1  MOL1        0.1564
     11  H         29.0410   21.4910   19.3130 H       1  MOL1        0.1579
     12  C         28.8610   18.6320   21.9280 C.ar    1  MOL1        0.0353
     13  C         29.1540   18.8160   23.2850 C.ar    1  MOL1       -0.0404
     14  C         28.9830   17.7650   24.1910 C.ar    1  MOL1       -0.0595
     15  C         28.5530   16.5140   23.7420 C.ar    1  MOL1       -0.0500
     16  C         28.2930   16.3090   22.3830 C.ar    1  MOL1        0.0566
     17  C         28.4450   17.3720   21.4870 C.ar    1  MOL1       -0.0288
     18  C         27.8420   14.9480   21.8420 C.3     1  MOL1        0.4175
     19  F         28.1590   13.9860   22.7510 F       1  MOL1       -0.1659
     20  F         28.4990   14.6900   20.6800 F       1  MOL1       -0.1659
     21  F         26.5030   14.9100   21.6100 F       1  MOL1       -0.1659
     22  C         24.1360   21.4000   17.1810 C.ar    1  MOL1        0.0662
     23  C         23.5010   20.4250   17.9560 C.ar    1  MOL1       -0.0344
     24  C         22.1160   20.2500   17.8720 C.ar    1  MOL1       -0.0334
     25  C         21.3560   21.0560   17.0200 C.ar    1  MOL1        0.1051
     26  C         21.9870   22.0470   16.2620 C.ar    1  MOL1       -0.0334
     27  C         23.3680   22.2390   16.3650 C.ar    1  MOL1       -0.0344
     28  S         19.6100   20.7860   16.8600 S.O2    1  MOL1        0.0559
     29  O         19.1110   20.1630   18.0710 O.2     1  MOL1       -0.1533
     30  O         18.9840   21.9950   16.3620 O.2     1  MOL1       -0.1533
     31  N         19.6020   19.6780   15.6710 N.3     1  MOL1       -0.2035
     32  H         19.4040   19.9550   14.7320 H       1  MOL1        0.1442
     33  H         19.7570   18.7140   15.8860 H       1  MOL1        0.1442
     34  C         26.1340   22.7240   15.1190 C.ar    1  MOL1        0.0005
     35  C         25.7770   21.9420   14.0130 C.ar    1  MOL1       -0.0526
     36  C         25.5050   22.5440   12.7820 C.ar    1  MOL1       -0.0611
     37  C         25.6290   23.9290   12.6390 C.ar    1  MOL1       -0.0617
     38  C         26.0210   24.7090   13.7300 C.ar    1  MOL1       -0.0611
     39  C         26.2670   24.1080   14.9680 C.ar    1  MOL1       -0.0526
     40  H         28.5240   22.3730   16.6540 H       1  MOL1        0.0674
     41  H         29.5140   19.7770   23.6340 H       1  MOL1        0.0636
     42  H         29.1850   17.9210   25.2440 H       1  MOL1        0.0618
     43  H         28.4210   15.7010   24.4480 H       1  MOL1        0.0623
     44  H         28.2380   17.2170   20.4340 H       1  MOL1        0.0642
     45  H         24.0850   19.8030   18.6250 H       1  MOL1        0.0639
     46  H         21.6310   19.4860   18.4700 H       1  MOL1        0.0638
     47  H         21.4040   22.6680   15.5930 H       1  MOL1        0.0638
     48  H         23.8450   23.0390   15.8110 H       1  MOL1        0.0639
     49  H         25.7110   20.8650   14.1130 H       1  MOL1        0.0624
     50  H         25.1970   21.9370   11.9390 H       1  MOL1        0.0618
     51  H         25.4210   24.3970   11.6840 H       1  MOL1        0.0618
     52  H         26.1350   25.7810   13.6160 H       1  MOL1        0.0618
     53  H         26.5640   24.7170   15.8150 H       1  MOL1        0.0624
@<TRIPOS>BOND
     1    51    37    1
     2    50    36    1
     3    37    36   ar
     4    37    38   ar
     5    36    35   ar
     6    52    38    1
     7    38    39   ar
     8    35    49    1
     9    35    34   ar
    10    32    31    1
    11    39    34   ar
    12    39    53    1
    13    34     5    1
    14    47    26    1
    15    31    33    1
    16    31    28    1
    17    48    27    1
    18    26    27   ar
    19    26    25   ar
    20    30    28    2
    21    27    22   ar
    22     5     4   ar
    23     5     1   ar
    24    40     4    1
    25    28    25    1
    26    28    29    2
    27    25    24   ar
    28     4     3   ar
    29    22     1    1
    30    22    23   ar
    31     1     2   ar
    32    24    23   ar
    33    24    46    1
    34    23    45    1
    35     3     2   ar
    36     3     6    1
    37     6    11    1
    38     6     7   am
    39     8     7    2
    40     7     9   am
    41    44    17    1
    42    20    18    1
    43     9    10    1
    44     9    12    1
    45    17    12   ar
    46    17    16   ar
    47    21    18    1
    48    18    16    1
    49    18    19    1
    50    12    13   ar
    51    16    15   ar
    52    13    41    1
    53    13    14   ar
    54    15    14   ar
    55    15    43    1
    56    14    42    1
