mol01.pdb
 OpenBabel11251619293D

 32 34  0  0  0  0  0  0  0  0999 V2000
   39.2540    8.2940   35.8230 C   0  0  0  0  0  0  0  0  0  0  0  0
   39.3610    9.3910   36.8190 C   0  0  0  0  0  0  0  0  0  0  0  0
   40.3180    9.0520   37.7050 N   0  0  0  0  0  0  0  0  0  0  0  0
   40.5670    9.6010   38.5100 H   0  0  0  0  0  0  0  0  0  0  0  0
   40.8210    7.8440   37.4110 C   0  0  0  0  0  0  0  0  0  0  0  0
   41.6550    7.2170   38.0410 O   0  0  0  0  0  0  0  0  0  0  0  0
   40.1700    7.3640   36.1580 C   0  0  0  0  0  0  0  0  0  0  0  0
   40.5490    6.1330   35.6770 N   0  0  0  0  0  0  0  0  0  0  0  0
   41.2040    5.6490   36.2970 H   0  0  0  0  0  0  0  0  0  0  0  0
   40.6070    5.6630   34.3540 C   0  0  0  0  0  0  0  0  0  0  0  0
   40.5450    4.2770   34.1430 C   0  0  0  0  0  0  0  0  0  0  0  0
   40.5170    3.6410   34.9550 H   0  0  0  0  0  0  0  0  0  0  0  0
   40.5220    3.7440   32.8510 C   0  0  0  0  0  0  0  0  0  0  0  0
   40.4700    2.7220   32.7150 H   0  0  0  0  0  0  0  0  0  0  0  0
   40.5690    4.5920   31.7490 C   0  0  0  0  0  0  0  0  0  0  0  0
   40.5460    4.2020   30.7940 H   0  0  0  0  0  0  0  0  0  0  0  0
   40.6460    5.9680   31.9410 C   0  0  0  0  0  0  0  0  0  0  0  0
   40.6890    6.5990   31.1250 H   0  0  0  0  0  0  0  0  0  0  0  0
   40.6660    6.4990   33.2340 C   0  0  0  0  0  0  0  0  0  0  0  0
   40.7240    7.5210   33.3640 H   0  0  0  0  0  0  0  0  0  0  0  0
   38.6970   10.4090   36.8520 O   0  0  0  0  0  0  0  0  0  0  0  0
   38.2690    8.2770   34.7320 C   0  0  0  0  0  0  0  0  0  0  0  0
   38.0130    9.4360   33.9870 C   0  0  0  0  0  0  0  0  0  0  0  0
   38.5120   10.3100   34.2150 H   0  0  0  0  0  0  0  0  0  0  0  0
   37.0890    9.4250   32.9380 C   0  0  0  0  0  0  0  0  0  0  0  0
   36.9130   10.2860   32.3970 H   0  0  0  0  0  0  0  0  0  0  0  0
   36.4070    8.2520   32.6220 C   0  0  0  0  0  0  0  0  0  0  0  0
   35.7310    8.2410   31.8420 H   0  0  0  0  0  0  0  0  0  0  0  0
   36.6380    7.0960   33.3620 C   0  0  0  0  0  0  0  0  0  0  0  0
   36.1320    6.2270   33.1310 H   0  0  0  0  0  0  0  0  0  0  0  0
   37.5540    7.1120   34.4170 C   0  0  0  0  0  0  0  0  0  0  0  0
   37.7060    6.2550   34.9720 H   0  0  0  0  0  0  0  0  0  0  0  0
  1  7  2  0  0  0  0
  1  2  1  0  0  0  0
  2 21  2  0  0  0  0
  2  3  1  0  0  0  0
  3  4  1  0  0  0  0
  5  3  1  0  0  0  0
  5  6  2  0  0  0  0
  7  5  1  0  0  0  0
  8  7  1  0  0  0  0
  8  9  1  0  0  0  0
 10  8  1  0  0  0  0
 11 10  1  0  0  0  0
 11 12  1  0  0  0  0
 13 11  2  0  0  0  0
 14 13  1  0  0  0  0
 15 17  2  0  0  0  0
 15 13  1  0  0  0  0
 16 15  1  0  0  0  0
 17 19  1  0  0  0  0
 18 17  1  0  0  0  0
 19 20  1  0  0  0  0
 19 10  2  0  0  0  0
 22  1  1  0  0  0  0
 23 24  1  0  0  0  0
 23 22  2  0  0  0  0
 25 23  1  0  0  0  0
 26 25  1  0  0  0  0
 27 25  2  0  0  0  0
 27 29  1  0  0  0  0
 28 27  1  0  0  0  0
 29 31  2  0  0  0  0
 30 29  1  0  0  0  0
 31 22  1  0  0  0  0
 31 32  1  0  0  0  0
M  END
>  <REMARK>
 32                     

$$$$
mol02.pdb
 OpenBabel11251619293D

 32 34  0  0  0  0  0  0  0  0999 V2000
   38.2710    8.2460   34.7420 C   0  0  0  0  0  0  0  0  0  0  0  0
   39.2610    8.2880   35.8330 C   0  0  0  0  0  0  0  0  0  0  0  0
   39.3790    9.4020   36.8300 C   0  0  0  0  0  0  0  0  0  0  0  0
   40.3370    9.0590   37.7100 N   0  0  0  0  0  0  0  0  0  0  0  0
   40.5850    9.6090   38.5150 H   0  0  0  0  0  0  0  0  0  0  0  0
   40.8290    7.8490   37.4150 C   0  0  0  0  0  0  0  0  0  0  0  0
   41.6540    7.2130   38.0490 O   0  0  0  0  0  0  0  0  0  0  0  0
   40.1770    7.3750   36.1620 C   0  0  0  0  0  0  0  0  0  0  0  0
   40.5470    6.1360   35.6810 N   0  0  0  0  0  0  0  0  0  0  0  0
   41.1960    5.6520   36.3010 H   0  0  0  0  0  0  0  0  0  0  0  0
   40.6040    5.6710   34.3560 C   0  0  0  0  0  0  0  0  0  0  0  0
   40.5320    4.2860   34.1450 C   0  0  0  0  0  0  0  0  0  0  0  0
   40.4960    3.6500   34.9570 H   0  0  0  0  0  0  0  0  0  0  0  0
   40.5080    3.7530   32.8530 C   0  0  0  0  0  0  0  0  0  0  0  0
   40.4480    2.7320   32.7160 H   0  0  0  0  0  0  0  0  0  0  0  0
   40.5650    4.6010   31.7510 C   0  0  0  0  0  0  0  0  0  0  0  0
   40.5420    4.2120   30.7950 H   0  0  0  0  0  0  0  0  0  0  0  0
   40.6530    5.9780   31.9440 C   0  0  0  0  0  0  0  0  0  0  0  0
   40.7040    6.6090   31.1290 H   0  0  0  0  0  0  0  0  0  0  0  0
   40.6730    6.5070   33.2370 C   0  0  0  0  0  0  0  0  0  0  0  0
   40.7400    7.5280   33.3680 H   0  0  0  0  0  0  0  0  0  0  0  0
   38.7200   10.4180   36.9000 O   0  0  0  0  0  0  0  0  0  0  0  0
   37.9690    9.3440   33.9530 C   0  0  0  0  0  0  0  0  0  0  0  0
   38.7810   10.8030   34.2140 Cl  0  0  0  0  0  0  0  0  0  0  0  0
   37.0770    9.4240   32.8990 C   0  0  0  0  0  0  0  0  0  0  0  0
   36.9280   10.3000   32.3750 H   0  0  0  0  0  0  0  0  0  0  0  0
   36.3990    8.2640   32.5900 C   0  0  0  0  0  0  0  0  0  0  0  0
   35.7240    8.2400   31.8100 H   0  0  0  0  0  0  0  0  0  0  0  0
   36.6440    7.1280   33.3510 C   0  0  0  0  0  0  0  0  0  0  0  0
   36.1330    6.2620   33.1200 H   0  0  0  0  0  0  0  0  0  0  0  0
   37.5500    7.1030   34.4150 C   0  0  0  0  0  0  0  0  0  0  0  0
   37.6840    6.2360   34.9580 H   0  0  0  0  0  0  0  0  0  0  0  0
  1  2  1  0  0  0  0
  2  8  2  0  0  0  0
  2  3  1  0  0  0  0
  3 22  2  0  0  0  0
  3  4  1  0  0  0  0
  4  5  1  0  0  0  0
  6  4  1  0  0  0  0
  6  7  2  0  0  0  0
  8  6  1  0  0  0  0
  9  8  1  0  0  0  0
  9 10  1  0  0  0  0
 11  9  1  0  0  0  0
 12 11  1  0  0  0  0
 12 13  1  0  0  0  0
 14 12  2  0  0  0  0
 15 14  1  0  0  0  0
 16 18  2  0  0  0  0
 16 14  1  0  0  0  0
 17 16  1  0  0  0  0
 18 20  1  0  0  0  0
 19 18  1  0  0  0  0
 20 21  1  0  0  0  0
 20 11  2  0  0  0  0
 23 24  1  0  0  0  0
 23  1  2  0  0  0  0
 25 23  1  0  0  0  0
 26 25  1  0  0  0  0
 27 25  2  0  0  0  0
 27 29  1  0  0  0  0
 28 27  1  0  0  0  0
 29 31  2  0  0  0  0
 30 29  1  0  0  0  0
 31  1  1  0  0  0  0
 31 32  1  0  0  0  0
M  END
>  <REMARK>
 32                     

$$$$
mol03.pdb
 OpenBabel11251619293D

 36 38  0  0  0  0  0  0  0  0999 V2000
   38.2770    8.3130   34.7230 C   0  0  0  0  0  0  0  0  0  0  0  0
   39.2690    8.3200   35.8060 C   0  0  0  0  0  0  0  0  0  0  0  0
   39.3660    9.3930   36.8290 C   0  0  0  0  0  0  0  0  0  0  0  0
   40.3970    9.0900   37.6430 N   0  0  0  0  0  0  0  0  0  0  0  0
   40.6140    9.6000   38.4800 H   0  0  0  0  0  0  0  0  0  0  0  0
   40.8360    7.8480   37.3820 C   0  0  0  0  0  0  0  0  0  0  0  0
   41.6100    7.1820   38.0470 O   0  0  0  0  0  0  0  0  0  0  0  0
   40.1650    7.3730   36.1380 C   0  0  0  0  0  0  0  0  0  0  0  0
   40.4990    6.1240   35.6680 N   0  0  0  0  0  0  0  0  0  0  0  0
   41.1360    5.6290   36.2970 H   0  0  0  0  0  0  0  0  0  0  0  0
   40.5830    5.6570   34.3450 C   0  0  0  0  0  0  0  0  0  0  0  0
   40.5500    4.2690   34.1330 C   0  0  0  0  0  0  0  0  0  0  0  0
   40.5010    3.6330   34.9440 H   0  0  0  0  0  0  0  0  0  0  0  0
   40.5820    3.7350   32.8420 C   0  0  0  0  0  0  0  0  0  0  0  0
   40.5550    2.7120   32.7060 H   0  0  0  0  0  0  0  0  0  0  0  0
   40.6500    4.5820   31.7410 C   0  0  0  0  0  0  0  0  0  0  0  0
   40.6720    4.1910   30.7860 H   0  0  0  0  0  0  0  0  0  0  0  0
   40.6880    5.9610   31.9330 C   0  0  0  0  0  0  0  0  0  0  0  0
   40.7430    6.5920   31.1190 H   0  0  0  0  0  0  0  0  0  0  0  0
   40.6520    6.4930   33.2270 C   0  0  0  0  0  0  0  0  0  0  0  0
   40.6770    7.5160   33.3570 H   0  0  0  0  0  0  0  0  0  0  0  0
   38.5990   10.3270   36.9850 O   0  0  0  0  0  0  0  0  0  0  0  0
   38.0910    9.4270   33.8820 C   0  0  0  0  0  0  0  0  0  0  0  0
   38.9210   10.5110   34.0400 O   0  0  0  0  0  0  0  0  0  0  0  0
   38.2100   11.7490   34.0960 C   0  0  0  0  0  0  0  0  0  0  0  0
   37.6620   11.8870   33.1880 H   0  0  0  0  0  0  0  0  0  0  0  0
   37.5320   11.7340   34.9230 H   0  0  0  0  0  0  0  0  0  0  0  0
   38.9040   12.5540   34.2190 H   0  0  0  0  0  0  0  0  0  0  0  0
   37.1540    9.3840   32.8430 C   0  0  0  0  0  0  0  0  0  0  0  0
   37.0400   10.1980   32.2190 H   0  0  0  0  0  0  0  0  0  0  0  0
   36.3740    8.2450   32.6490 C   0  0  0  0  0  0  0  0  0  0  0  0
   35.6790    8.2190   31.8870 H   0  0  0  0  0  0  0  0  0  0  0  0
   36.5340    7.1430   33.4840 C   0  0  0  0  0  0  0  0  0  0  0  0
   35.9580    6.2990   33.3400 H   0  0  0  0  0  0  0  0  0  0  0  0
   37.4740    7.1790   34.5160 C   0  0  0  0  0  0  0  0  0  0  0  0
   37.5800    6.3610   35.1360 H   0  0  0  0  0  0  0  0  0  0  0  0
  1  2  1  0  0  0  0
  2  8  2  0  0  0  0
  2  3  1  0  0  0  0
  3 22  2  0  0  0  0
  3  4  1  0  0  0  0
  4  5  1  0  0  0  0
  6  4  1  0  0  0  0
  6  7  2  0  0  0  0
  8  6  1  0  0  0  0
  9  8  1  0  0  0  0
  9 10  1  0  0  0  0
 11  9  1  0  0  0  0
 12 11  1  0  0  0  0
 12 13  1  0  0  0  0
 14 12  2  0  0  0  0
 15 14  1  0  0  0  0
 16 18  2  0  0  0  0
 16 14  1  0  0  0  0
 17 16  1  0  0  0  0
 18 20  1  0  0  0  0
 19 18  1  0  0  0  0
 20 21  1  0  0  0  0
 20 11  2  0  0  0  0
 23 24  1  0  0  0  0
 23  1  2  0  0  0  0
 24 25  1  0  0  0  0
 25 28  1  0  0  0  0
 25 27  1  0  0  0  0
 26 25  1  0  0  0  0
 29 23  1  0  0  0  0
 30 29  1  0  0  0  0
 31 29  2  0  0  0  0
 31 33  1  0  0  0  0
 32 31  1  0  0  0  0
 33 35  2  0  0  0  0
 34 33  1  0  0  0  0
 35  1  1  0  0  0  0
 35 36  1  0  0  0  0
M  END
>  <REMARK>
 36                     

$$$$
mol04.pdb
 OpenBabel11251619293D

 34 36  0  0  0  0  0  0  0  0999 V2000
   38.2460    8.2960   34.7370 C   0  0  0  0  0  0  0  0  0  0  0  0
   39.2430    8.2970   35.8150 C   0  0  0  0  0  0  0  0  0  0  0  0
   39.3870    9.3990   36.8010 C   0  0  0  0  0  0  0  0  0  0  0  0
   40.3560    9.0570   37.6680 N   0  0  0  0  0  0  0  0  0  0  0  0
   40.6810    9.6270   38.4020 H   0  0  0  0  0  0  0  0  0  0  0  0
   40.8180    7.8270   37.3900 C   0  0  0  0  0  0  0  0  0  0  0  0
   41.6380    7.1830   38.0200 O   0  0  0  0  0  0  0  0  0  0  0  0
   40.1360    7.3480   36.1520 C   0  0  0  0  0  0  0  0  0  0  0  0
   40.4740    6.1010   35.6810 N   0  0  0  0  0  0  0  0  0  0  0  0
   40.6680    5.4300   36.3740 H   0  0  0  0  0  0  0  0  0  0  0  0
   40.5840    5.6420   34.3560 C   0  0  0  0  0  0  0  0  0  0  0  0
   40.5910    4.2550   34.1390 C   0  0  0  0  0  0  0  0  0  0  0  0
   40.5540    3.6160   34.9480 H   0  0  0  0  0  0  0  0  0  0  0  0
   40.6470    3.7240   32.8480 C   0  0  0  0  0  0  0  0  0  0  0  0
   40.6510    2.7010   32.7090 H   0  0  0  0  0  0  0  0  0  0  0  0
   40.6970    4.5760   31.7500 C   0  0  0  0  0  0  0  0  0  0  0  0
   40.7340    4.1880   30.7940 H   0  0  0  0  0  0  0  0  0  0  0  0
   40.6970    5.9550   31.9450 C   0  0  0  0  0  0  0  0  0  0  0  0
   40.7380    6.5900   31.1320 H   0  0  0  0  0  0  0  0  0  0  0  0
   40.6410    6.4820   33.2390 C   0  0  0  0  0  0  0  0  0  0  0  0
   40.6420    7.5050   33.3720 H   0  0  0  0  0  0  0  0  0  0  0  0
   38.7240   10.4200   36.8350 O   0  0  0  0  0  0  0  0  0  0  0  0
   38.0290    9.4510   33.9700 C   0  0  0  0  0  0  0  0  0  0  0  0
   38.5680   10.3090   34.1680 H   0  0  0  0  0  0  0  0  0  0  0  0
   37.0820    9.4430   32.9350 C   0  0  0  0  0  0  0  0  0  0  0  0
   36.8780   10.6520   32.1270 N   0  0  0  0  0  0  0  0  0  0  0  0
   36.1080   10.5740   31.1590 O   0  0  0  0  0  0  0  0  0  0  0  0
   37.4950   11.6750   32.4520 O   0  0  0  0  0  0  0  0  0  0  0  0
   36.3370    8.2910   32.6560 C   0  0  0  0  0  0  0  0  0  0  0  0
   35.6450    8.2900   31.8900 H   0  0  0  0  0  0  0  0  0  0  0  0
   36.5400    7.1460   33.4230 C   0  0  0  0  0  0  0  0  0  0  0  0
   35.9950    6.2920   33.2270 H   0  0  0  0  0  0  0  0  0  0  0  0
   37.4810    7.1520   34.4580 C   0  0  0  0  0  0  0  0  0  0  0  0
   37.6150    6.3010   35.0260 H   0  0  0  0  0  0  0  0  0  0  0  0
  1  2  1  0  0  0  0
  2  8  2  0  0  0  0
  2  3  1  0  0  0  0
  3 22  2  0  0  0  0
  3  4  1  0  0  0  0
  4  5  1  0  0  0  0
  6  4  1  0  0  0  0
  6  7  2  0  0  0  0
  8  6  1  0  0  0  0
  9  8  1  0  0  0  0
  9 10  1  0  0  0  0
 11  9  1  0  0  0  0
 12 11  1  0  0  0  0
 12 13  1  0  0  0  0
 14 12  2  0  0  0  0
 15 14  1  0  0  0  0
 16 18  2  0  0  0  0
 16 14  1  0  0  0  0
 17 16  1  0  0  0  0
 18 20  1  0  0  0  0
 19 18  1  0  0  0  0
 20 21  1  0  0  0  0
 20 11  2  0  0  0  0
 23 24  1  0  0  0  0
 23  1  2  0  0  0  0
 25 23  1  0  0  0  0
 26 28  2  0  0  0  0
 26 25  1  0  0  0  0
 27 26  2  0  0  0  0
 29 25  2  0  0  0  0
 29 31  1  0  0  0  0
 30 29  1  0  0  0  0
 31 33  2  0  0  0  0
 32 31  1  0  0  0  0
 33  1  1  0  0  0  0
 33 34  1  0  0  0  0
M  END
>  <REMARK>
 34                     

$$$$
mol05.pdb
 OpenBabel11251619293D

 32 34  0  0  0  0  0  0  0  0999 V2000
   38.2270    8.2910   34.7450 C   0  0  0  0  0  0  0  0  0  0  0  0
   39.2310    8.2960   35.8150 C   0  0  0  0  0  0  0  0  0  0  0  0
   39.4210    9.4160   36.7730 C   0  0  0  0  0  0  0  0  0  0  0  0
   40.3730    9.0530   37.6530 N   0  0  0  0  0  0  0  0  0  0  0  0
   40.6720    9.6110   38.4330 H   0  0  0  0  0  0  0  0  0  0  0  0
   40.8060    7.8090   37.3860 C   0  0  0  0  0  0  0  0  0  0  0  0
   41.6160    7.1550   38.0180 O   0  0  0  0  0  0  0  0  0  0  0  0
   40.1070    7.3320   36.1580 C   0  0  0  0  0  0  0  0  0  0  0  0
   40.4150    6.0730   35.6950 N   0  0  0  0  0  0  0  0  0  0  0  0
   41.0510    5.5780   36.3250 H   0  0  0  0  0  0  0  0  0  0  0  0
   40.5660    5.6330   34.3640 C   0  0  0  0  0  0  0  0  0  0  0  0
   40.5940    4.2500   34.1280 C   0  0  0  0  0  0  0  0  0  0  0  0
   40.5430    3.5990   34.9270 H   0  0  0  0  0  0  0  0  0  0  0  0
   40.6900    3.7390   32.8310 C   0  0  0  0  0  0  0  0  0  0  0  0
   40.7110    2.7190   32.6780 H   0  0  0  0  0  0  0  0  0  0  0  0
   40.7570    4.6070   31.7460 C   0  0  0  0  0  0  0  0  0  0  0  0
   40.8250    4.2330   30.7870 H   0  0  0  0  0  0  0  0  0  0  0  0
   40.7320    5.9810   31.9600 C   0  0  0  0  0  0  0  0  0  0  0  0
   40.7830    6.6270   31.1570 H   0  0  0  0  0  0  0  0  0  0  0  0
   40.6380    6.4900   33.2600 C   0  0  0  0  0  0  0  0  0  0  0  0
   40.6220    7.5110   33.4070 H   0  0  0  0  0  0  0  0  0  0  0  0
   38.8160   10.4720   36.7780 O   0  0  0  0  0  0  0  0  0  0  0  0
   38.0050    9.4390   33.9690 C   0  0  0  0  0  0  0  0  0  0  0  0
   38.5460   10.2960   34.1620 H   0  0  0  0  0  0  0  0  0  0  0  0
   37.0600    9.4360   32.9380 C   0  0  0  0  0  0  0  0  0  0  0  0
   36.9100   10.2850   32.3710 H   0  0  0  0  0  0  0  0  0  0  0  0
   36.3220    8.2840   32.6780 C   0  0  0  0  0  0  0  0  0  0  0  0
   35.1680    8.2770   31.4020 Cl  0  0  0  0  0  0  0  0  0  0  0  0
   36.5160    7.1400   33.4450 C   0  0  0  0  0  0  0  0  0  0  0  0
   35.9660    6.2880   33.2520 H   0  0  0  0  0  0  0  0  0  0  0  0
   37.4580    7.1470   34.4780 C   0  0  0  0  0  0  0  0  0  0  0  0
   37.5900    6.3000   35.0520 H   0  0  0  0  0  0  0  0  0  0  0  0
  1  2  1  0  0  0  0
  2  8  2  0  0  0  0
  2  3  1  0  0  0  0
  3 22  2  0  0  0  0
  3  4  1  0  0  0  0
  4  5  1  0  0  0  0
  6  4  1  0  0  0  0
  6  7  2  0  0  0  0
  8  6  1  0  0  0  0
  9  8  1  0  0  0  0
  9 10  1  0  0  0  0
 11  9  1  0  0  0  0
 12 11  1  0  0  0  0
 12 13  1  0  0  0  0
 14 12  2  0  0  0  0
 15 14  1  0  0  0  0
 16 18  2  0  0  0  0
 16 14  1  0  0  0  0
 17 16  1  0  0  0  0
 18 20  1  0  0  0  0
 19 18  1  0  0  0  0
 20 21  1  0  0  0  0
 20 11  2  0  0  0  0
 23 24  1  0  0  0  0
 23  1  2  0  0  0  0
 25 23  1  0  0  0  0
 26 25  1  0  0  0  0
 27 25  2  0  0  0  0
 27 29  1  0  0  0  0
 28 27  1  0  0  0  0
 29 31  2  0  0  0  0
 30 29  1  0  0  0  0
 31  1  1  0  0  0  0
 31 32  1  0  0  0  0
M  END
>  <REMARK>
 32                     

$$$$
mol06.pdb
 OpenBabel11251619293D

 36 38  0  0  0  0  0  0  0  0999 V2000
   38.2210    8.2980   34.7430 C   0  0  0  0  0  0  0  0  0  0  0  0
   39.2360    8.3060   35.8030 C   0  0  0  0  0  0  0  0  0  0  0  0
   39.4630    9.4340   36.7400 C   0  0  0  0  0  0  0  0  0  0  0  0
   40.4050    9.0520   37.6240 N   0  0  0  0  0  0  0  0  0  0  0  0
   40.7170    9.6110   38.4000 H   0  0  0  0  0  0  0  0  0  0  0  0
   40.7920    7.7900   37.3810 C   0  0  0  0  0  0  0  0  0  0  0  0
   41.5690    7.1130   38.0320 O   0  0  0  0  0  0  0  0  0  0  0  0
   40.0850    7.3220   36.1560 C   0  0  0  0  0  0  0  0  0  0  0  0
   40.3500    6.0490   35.7010 N   0  0  0  0  0  0  0  0  0  0  0  0
   40.9600    5.5360   36.3440 H   0  0  0  0  0  0  0  0  0  0  0  0
   40.5460    5.6250   34.3700 C   0  0  0  0  0  0  0  0  0  0  0  0
   40.5630    4.2450   34.1130 C   0  0  0  0  0  0  0  0  0  0  0  0
   40.4660    3.5820   34.8980 H   0  0  0  0  0  0  0  0  0  0  0  0
   40.7090    3.7520   32.8140 C   0  0  0  0  0  0  0  0  0  0  0  0
   40.7220    2.7340   32.6470 H   0  0  0  0  0  0  0  0  0  0  0  0
   40.8370    4.6350   31.7460 C   0  0  0  0  0  0  0  0  0  0  0  0
   40.9440    4.2740   30.7850 H   0  0  0  0  0  0  0  0  0  0  0  0
   40.8200    6.0060   31.9800 C   0  0  0  0  0  0  0  0  0  0  0  0
   40.9150    6.6640   31.1900 H   0  0  0  0  0  0  0  0  0  0  0  0
   40.6740    6.4970   33.2820 C   0  0  0  0  0  0  0  0  0  0  0  0
   40.6600    7.5160   33.4430 H   0  0  0  0  0  0  0  0  0  0  0  0
   38.8940   10.5100   36.7320 O   0  0  0  0  0  0  0  0  0  0  0  0
   37.9860    9.4340   33.9580 C   0  0  0  0  0  0  0  0  0  0  0  0
   38.5330   10.2930   34.1260 H   0  0  0  0  0  0  0  0  0  0  0  0
   37.0170    9.4160   32.9480 C   0  0  0  0  0  0  0  0  0  0  0  0
   36.8630   10.2590   32.3730 H   0  0  0  0  0  0  0  0  0  0  0  0
   36.2560    8.2700   32.7100 C   0  0  0  0  0  0  0  0  0  0  0  0
   35.3420    8.3820   31.7000 O   0  0  0  0  0  0  0  0  0  0  0  0
   34.3970    7.3250   31.5790 C   0  0  0  0  0  0  0  0  0  0  0  0
   34.9130    6.4040   31.4060 H   0  0  0  0  0  0  0  0  0  0  0  0
   33.8270    7.2510   32.4820 H   0  0  0  0  0  0  0  0  0  0  0  0
   33.7400    7.5260   30.7580 H   0  0  0  0  0  0  0  0  0  0  0  0
   36.4780    7.1360   33.4860 C   0  0  0  0  0  0  0  0  0  0  0  0
   35.9280    6.2800   33.3150 H   0  0  0  0  0  0  0  0  0  0  0  0
   37.4460    7.1540   34.4980 C   0  0  0  0  0  0  0  0  0  0  0  0
   37.5920    6.3100   35.0740 H   0  0  0  0  0  0  0  0  0  0  0  0
  1  2  1  0  0  0  0
  2  8  2  0  0  0  0
  2  3  1  0  0  0  0
  3  4  1  0  0  0  0
  4  5  1  0  0  0  0
  6  4  1  0  0  0  0
  6  7  2  0  0  0  0
  8  6  1  0  0  0  0
  9  8  1  0  0  0  0
  9 10  1  0  0  0  0
 11  9  1  0  0  0  0
 12 11  1  0  0  0  0
 12 13  1  0  0  0  0
 14 12  2  0  0  0  0
 15 14  1  0  0  0  0
 16 18  2  0  0  0  0
 16 14  1  0  0  0  0
 17 16  1  0  0  0  0
 18 20  1  0  0  0  0
 19 18  1  0  0  0  0
 20 21  1  0  0  0  0
 20 11  2  0  0  0  0
 22  3  2  0  0  0  0
 23 24  1  0  0  0  0
 23  1  2  0  0  0  0
 25 23  1  0  0  0  0
 26 25  1  0  0  0  0
 27 25  2  0  0  0  0
 27 33  1  0  0  0  0
 28 27  1  0  0  0  0
 29 28  1  0  0  0  0
 29 31  1  0  0  0  0
 30 29  1  0  0  0  0
 32 29  1  0  0  0  0
 33 35  2  0  0  0  0
 34 33  1  0  0  0  0
 35  1  1  0  0  0  0
 35 36  1  0  0  0  0
M  END
>  <REMARK>
 36                     

$$$$
mol07.pdb
 OpenBabel11251619293D

 32 34  0  0  0  0  0  0  0  0999 V2000
   40.0810    7.3100   36.1560 C   0  0  0  0  0  0  0  0  0  0  0  0
   40.3250    6.0480   35.6940 N   0  0  0  0  0  0  0  0  0  0  0  0
   40.4300    5.3350   36.4100 H   0  0  0  0  0  0  0  0  0  0  0  0
   40.5330    5.6380   34.3920 C   0  0  0  0  0  0  0  0  0  0  0  0
   40.5510    4.2810   34.1490 C   0  0  0  0  0  0  0  0  0  0  0  0
   40.4580    3.5980   34.9170 H   0  0  0  0  0  0  0  0  0  0  0  0
   40.6970    3.8720   32.8450 C   0  0  0  0  0  0  0  0  0  0  0  0
   40.7020    2.2100   32.5780 Cl  0  0  0  0  0  0  0  0  0  0  0  0
   40.8290    4.6620   31.7410 C   0  0  0  0  0  0  0  0  0  0  0  0
   40.9320    4.2710   30.7910 H   0  0  0  0  0  0  0  0  0  0  0  0
   40.8150    6.0160   31.9820 C   0  0  0  0  0  0  0  0  0  0  0  0
   40.9110    6.6880   31.2040 H   0  0  0  0  0  0  0  0  0  0  0  0
   40.6700    6.4660   33.2890 C   0  0  0  0  0  0  0  0  0  0  0  0
   40.6640    7.4860   33.4490 H   0  0  0  0  0  0  0  0  0  0  0  0
   40.7950    7.7710   37.3720 C   0  0  0  0  0  0  0  0  0  0  0  0
   40.4180    9.0410   37.6050 N   0  0  0  0  0  0  0  0  0  0  0  0
   40.7710    9.6160   38.3460 H   0  0  0  0  0  0  0  0  0  0  0  0
   39.4710    9.4230   36.7250 C   0  0  0  0  0  0  0  0  0  0  0  0
   38.9070   10.5010   36.7140 O   0  0  0  0  0  0  0  0  0  0  0  0
   39.2400    8.2930   35.7940 C   0  0  0  0  0  0  0  0  0  0  0  0
   38.2260    8.2830   34.7370 C   0  0  0  0  0  0  0  0  0  0  0  0
   37.9910    9.4050   33.9510 C   0  0  0  0  0  0  0  0  0  0  0  0
   38.5400   10.2630   34.1150 H   0  0  0  0  0  0  0  0  0  0  0  0
   37.0260    9.3910   32.9440 C   0  0  0  0  0  0  0  0  0  0  0  0
   36.8760   10.2330   32.3660 H   0  0  0  0  0  0  0  0  0  0  0  0
   36.2690    8.2570   32.7140 C   0  0  0  0  0  0  0  0  0  0  0  0
   35.5510    8.2500   31.9730 H   0  0  0  0  0  0  0  0  0  0  0  0
   36.4850    7.1320   33.4880 C   0  0  0  0  0  0  0  0  0  0  0  0
   35.9330    6.2760   33.3200 H   0  0  0  0  0  0  0  0  0  0  0  0
   37.4480    7.1530   34.4950 C   0  0  0  0  0  0  0  0  0  0  0  0
   37.5880    6.3110   35.0750 H   0  0  0  0  0  0  0  0  0  0  0  0
   41.5710    7.1020   38.0290 O   0  0  0  0  0  0  0  0  0  0  0  0
  1 15  1  0  0  0  0
  2  1  1  0  0  0  0
  2  3  1  0  0  0  0
  4  2  1  0  0  0  0
  5  4  1  0  0  0  0
  5  6  1  0  0  0  0
  7  5  2  0  0  0  0
  8  7  1  0  0  0  0
  9 11  2  0  0  0  0
  9  7  1  0  0  0  0
 10  9  1  0  0  0  0
 11 13  1  0  0  0  0
 12 11  1  0  0  0  0
 13 14  1  0  0  0  0
 13  4  2  0  0  0  0
 15 16  1  0  0  0  0
 15 32  2  0  0  0  0
 16 17  1  0  0  0  0
 18 16  1  0  0  0  0
 19 18  2  0  0  0  0
 20  1  2  0  0  0  0
 20 18  1  0  0  0  0
 21 20  1  0  0  0  0
 22 23  1  0  0  0  0
 22 21  2  0  0  0  0
 24 22  1  0  0  0  0
 25 24  1  0  0  0  0
 26 24  2  0  0  0  0
 26 28  1  0  0  0  0
 27 26  1  0  0  0  0
 28 30  2  0  0  0  0
 29 28  1  0  0  0  0
 30 21  1  0  0  0  0
 30 31  1  0  0  0  0
M  END
>  <REMARK>
 32                     

$$$$
mol08.pdb
 OpenBabel11251619293D

 32 34  0  0  0  0  0  0  0  0999 V2000
   39.2650    8.3220   35.7880 C   0  0  0  0  0  0  0  0  0  0  0  0
   39.3990    9.4020   36.7980 C   0  0  0  0  0  0  0  0  0  0  0  0
   40.4240    9.0770   37.6100 N   0  0  0  0  0  0  0  0  0  0  0  0
   40.6680    9.5960   38.4370 H   0  0  0  0  0  0  0  0  0  0  0  0
   40.8220    7.8190   37.3650 C   0  0  0  0  0  0  0  0  0  0  0  0
   41.5810    7.1340   38.0290 O   0  0  0  0  0  0  0  0  0  0  0  0
   40.1270    7.3490   36.1320 C   0  0  0  0  0  0  0  0  0  0  0  0
   40.4030    6.0810   35.6750 N   0  0  0  0  0  0  0  0  0  0  0  0
   41.0130    5.5700   36.3210 H   0  0  0  0  0  0  0  0  0  0  0  0
   40.5590    5.6370   34.3480 C   0  0  0  0  0  0  0  0  0  0  0  0
   40.5380    4.2540   34.1110 C   0  0  0  0  0  0  0  0  0  0  0  0
   40.4270    3.6020   34.9030 H   0  0  0  0  0  0  0  0  0  0  0  0
   40.6650    3.7500   32.8160 C   0  0  0  0  0  0  0  0  0  0  0  0
   40.6370    2.0490   32.5540 Cl  0  0  0  0  0  0  0  0  0  0  0  0
   40.8130    4.6120   31.7340 C   0  0  0  0  0  0  0  0  0  0  0  0
   40.9090    4.2360   30.7780 H   0  0  0  0  0  0  0  0  0  0  0  0
   40.8300    5.9880   31.9530 C   0  0  0  0  0  0  0  0  0  0  0  0
   40.9370    6.6350   31.1560 H   0  0  0  0  0  0  0  0  0  0  0  0
   40.7020    6.4940   33.2510 C   0  0  0  0  0  0  0  0  0  0  0  0
   40.7130    7.5150   33.4020 H   0  0  0  0  0  0  0  0  0  0  0  0
   38.6610   10.3600   36.9310 O   0  0  0  0  0  0  0  0  0  0  0  0
   38.2610    8.3250   34.7160 C   0  0  0  0  0  0  0  0  0  0  0  0
   38.1440    9.3700   33.7820 C   0  0  0  0  0  0  0  0  0  0  0  0
   39.2610   10.6930   33.7290 Cl  0  0  0  0  0  0  0  0  0  0  0  0
   37.1450    9.3430   32.8020 C   0  0  0  0  0  0  0  0  0  0  0  0
   37.0610   10.1240   32.1320 H   0  0  0  0  0  0  0  0  0  0  0  0
   36.2640    8.2660   32.7270 C   0  0  0  0  0  0  0  0  0  0  0  0
   35.5280    8.2490   32.0040 H   0  0  0  0  0  0  0  0  0  0  0  0
   36.3800    7.2140   33.6300 C   0  0  0  0  0  0  0  0  0  0  0  0
   35.7380    6.4090   33.5680 H   0  0  0  0  0  0  0  0  0  0  0  0
   37.3650    7.2460   34.6210 C   0  0  0  0  0  0  0  0  0  0  0  0
   37.4360    6.4660   35.2930 H   0  0  0  0  0  0  0  0  0  0  0  0
  1  7  2  0  0  0  0
  1  2  1  0  0  0  0
  2 21  2  0  0  0  0
  2  3  1  0  0  0  0
  3  4  1  0  0  0  0
  5  3  1  0  0  0  0
  5  6  2  0  0  0  0
  7  5  1  0  0  0  0
  8  7  1  0  0  0  0
  8  9  1  0  0  0  0
 10  8  1  0  0  0  0
 11 10  1  0  0  0  0
 11 12  1  0  0  0  0
 13 11  2  0  0  0  0
 14 13  1  0  0  0  0
 15 17  2  0  0  0  0
 15 13  1  0  0  0  0
 16 15  1  0  0  0  0
 17 19  1  0  0  0  0
 18 17  1  0  0  0  0
 19 20  1  0  0  0  0
 19 10  2  0  0  0  0
 22  1  1  0  0  0  0
 23 22  2  0  0  0  0
 24 23  1  0  0  0  0
 25 23  1  0  0  0  0
 26 25  1  0  0  0  0
 27 25  2  0  0  0  0
 27 29  1  0  0  0  0
 28 27  1  0  0  0  0
 29 31  2  0  0  0  0
 30 29  1  0  0  0  0
 31 22  1  0  0  0  0
 31 32  1  0  0  0  0
M  END
>  <REMARK>
 32                     

$$$$
mol09.pdb
 OpenBabel11251619293D

 36 38  0  0  0  0  0  0  0  0999 V2000
   38.2440    8.3060   34.7220 C   0  0  0  0  0  0  0  0  0  0  0  0
   39.2520    8.3080   35.7870 C   0  0  0  0  0  0  0  0  0  0  0  0
   39.4150    9.4110   36.7660 C   0  0  0  0  0  0  0  0  0  0  0  0
   40.4170    9.0690   37.6000 N   0  0  0  0  0  0  0  0  0  0  0  0
   40.6750    9.6010   38.4140 H   0  0  0  0  0  0  0  0  0  0  0  0
   40.8050    7.8050   37.3640 C   0  0  0  0  0  0  0  0  0  0  0  0
   41.5620    7.1230   38.0320 O   0  0  0  0  0  0  0  0  0  0  0  0
   40.1080    7.3310   36.1360 C   0  0  0  0  0  0  0  0  0  0  0  0
   40.3790    6.0610   35.6800 N   0  0  0  0  0  0  0  0  0  0  0  0
   40.9890    5.5510   36.3270 H   0  0  0  0  0  0  0  0  0  0  0  0
   40.5590    5.6280   34.3500 C   0  0  0  0  0  0  0  0  0  0  0  0
   40.5800    4.2470   34.1050 C   0  0  0  0  0  0  0  0  0  0  0  0
   40.4860    3.5870   34.8930 H   0  0  0  0  0  0  0  0  0  0  0  0
   40.7260    3.7550   32.8070 C   0  0  0  0  0  0  0  0  0  0  0  0
   40.7480    2.0550   32.5360 Cl  0  0  0  0  0  0  0  0  0  0  0  0
   40.8520    4.6270   31.7300 C   0  0  0  0  0  0  0  0  0  0  0  0
   40.9620    4.2590   30.7720 H   0  0  0  0  0  0  0  0  0  0  0  0
   40.8280    6.0000   31.9570 C   0  0  0  0  0  0  0  0  0  0  0  0
   40.9190    6.6550   31.1650 H   0  0  0  0  0  0  0  0  0  0  0  0
   40.6800    6.4940   33.2580 C   0  0  0  0  0  0  0  0  0  0  0  0
   40.6600    7.5140   33.4140 H   0  0  0  0  0  0  0  0  0  0  0  0
   38.7210   10.4080   36.8660 O   0  0  0  0  0  0  0  0  0  0  0  0
   38.1540    9.3620   33.7950 C   0  0  0  0  0  0  0  0  0  0  0  0
   39.1300   10.3270   33.8490 O   0  0  0  0  0  0  0  0  0  0  0  0
   38.7150   11.6360   33.4720 C   0  0  0  0  0  0  0  0  0  0  0  0
   38.3600   11.6210   32.4630 H   0  0  0  0  0  0  0  0  0  0  0  0
   37.9300   11.9620   34.1220 H   0  0  0  0  0  0  0  0  0  0  0  0
   39.5440   12.3090   33.5480 H   0  0  0  0  0  0  0  0  0  0  0  0
   37.1560    9.3440   32.8130 C   0  0  0  0  0  0  0  0  0  0  0  0
   37.0910   10.1170   32.1330 H   0  0  0  0  0  0  0  0  0  0  0  0
   36.2480    8.2850   32.7490 C   0  0  0  0  0  0  0  0  0  0  0  0
   35.5110    8.2810   32.0270 H   0  0  0  0  0  0  0  0  0  0  0  0
   36.3360    7.2350   33.6580 C   0  0  0  0  0  0  0  0  0  0  0  0
   35.6690    6.4490   33.6050 H   0  0  0  0  0  0  0  0  0  0  0  0
   37.3260    7.2460   34.6400 C   0  0  0  0  0  0  0  0  0  0  0  0
   37.3850    6.4670   35.3140 H   0  0  0  0  0  0  0  0  0  0  0  0
  1  2  1  0  0  0  0
  2  8  2  0  0  0  0
  2  3  1  0  0  0  0
  3 22  2  0  0  0  0
  3  4  1  0  0  0  0
  4  5  1  0  0  0  0
  6  4  1  0  0  0  0
  6  7  2  0  0  0  0
  8  6  1  0  0  0  0
  9  8  1  0  0  0  0
  9 10  1  0  0  0  0
 11  9  1  0  0  0  0
 12 11  1  0  0  0  0
 12 13  1  0  0  0  0
 14 12  2  0  0  0  0
 15 14  1  0  0  0  0
 16 18  2  0  0  0  0
 16 14  1  0  0  0  0
 17 16  1  0  0  0  0
 18 20  1  0  0  0  0
 19 18  1  0  0  0  0
 20 21  1  0  0  0  0
 20 11  2  0  0  0  0
 23 24  1  0  0  0  0
 23  1  2  0  0  0  0
 25 28  1  0  0  0  0
 25 24  1  0  0  0  0
 25 27  1  0  0  0  0
 26 25  1  0  0  0  0
 29 23  1  0  0  0  0
 30 29  1  0  0  0  0
 31 29  2  0  0  0  0
 31 33  1  0  0  0  0
 32 31  1  0  0  0  0
 33 35  2  0  0  0  0
 34 33  1  0  0  0  0
 35  1  1  0  0  0  0
 35 36  1  0  0  0  0
M  END
>  <REMARK>
 36                     

$$$$
mol10.pdb
 OpenBabel11251619293D

 34 36  0  0  0  0  0  0  0  0999 V2000
   38.2720    8.3360   34.7130 C   0  0  0  0  0  0  0  0  0  0  0  0
   39.2660    8.3130   35.7960 C   0  0  0  0  0  0  0  0  0  0  0  0
   39.3990    9.3930   36.8020 C   0  0  0  0  0  0  0  0  0  0  0  0
   40.3830    9.0510   37.6510 N   0  0  0  0  0  0  0  0  0  0  0  0
   40.7360    9.6280   38.3670 H   0  0  0  0  0  0  0  0  0  0  0  0
   40.8150    7.8080   37.3810 C   0  0  0  0  0  0  0  0  0  0  0  0
   41.5970    7.1340   38.0280 O   0  0  0  0  0  0  0  0  0  0  0  0
   40.1300    7.3430   36.1400 C   0  0  0  0  0  0  0  0  0  0  0  0
   40.4220    6.0810   35.6750 N   0  0  0  0  0  0  0  0  0  0  0  0
   40.5460    5.3930   36.3680 H   0  0  0  0  0  0  0  0  0  0  0  0
   40.5680    5.6360   34.3460 C   0  0  0  0  0  0  0  0  0  0  0  0
   40.5570    4.2530   34.1120 C   0  0  0  0  0  0  0  0  0  0  0  0
   40.4590    3.6020   34.9070 H   0  0  0  0  0  0  0  0  0  0  0  0
   40.6770    3.7470   32.8160 C   0  0  0  0  0  0  0  0  0  0  0  0
   40.6640    2.0450   32.5610 Cl  0  0  0  0  0  0  0  0  0  0  0  0
   40.8060    4.6070   31.7320 C   0  0  0  0  0  0  0  0  0  0  0  0
   40.8910    4.2290   30.7750 H   0  0  0  0  0  0  0  0  0  0  0  0
   40.8190    5.9830   31.9480 C   0  0  0  0  0  0  0  0  0  0  0  0
   40.9170    6.6290   31.1490 H   0  0  0  0  0  0  0  0  0  0  0  0
   40.7000    6.4920   33.2470 C   0  0  0  0  0  0  0  0  0  0  0  0
   40.7100    7.5130   33.3960 H   0  0  0  0  0  0  0  0  0  0  0  0
   38.6890   10.3820   36.8650 O   0  0  0  0  0  0  0  0  0  0  0  0
   38.1250    9.3850   33.7820 C   0  0  0  0  0  0  0  0  0  0  0  0
   39.0530   10.5180   33.7440 N   0  0  0  0  0  0  0  0  0  0  0  0
   40.2480   10.2890   33.9870 O   0  0  0  0  0  0  0  0  0  0  0  0
   38.5990   11.6190   33.4040 O   0  0  0  0  0  0  0  0  0  0  0  0
   37.1210    9.3540   32.7960 C   0  0  0  0  0  0  0  0  0  0  0  0
   37.0300   10.1330   32.1250 H   0  0  0  0  0  0  0  0  0  0  0  0
   36.2510    8.2690   32.7280 C   0  0  0  0  0  0  0  0  0  0  0  0
   35.5140    8.2410   32.0060 H   0  0  0  0  0  0  0  0  0  0  0  0
   36.3790    7.2220   33.6380 C   0  0  0  0  0  0  0  0  0  0  0  0
   35.7360    6.4160   33.5870 H   0  0  0  0  0  0  0  0  0  0  0  0
   37.3730    7.2570   34.6200 C   0  0  0  0  0  0  0  0  0  0  0  0
   37.4490    6.4760   35.2900 H   0  0  0  0  0  0  0  0  0  0  0  0
  1  2  1  0  0  0  0
  2  8  2  0  0  0  0
  2  3  1  0  0  0  0
  3 22  2  0  0  0  0
  3  4  1  0  0  0  0
  4  5  1  0  0  0  0
  6  4  1  0  0  0  0
  6  7  2  0  0  0  0
  8  6  1  0  0  0  0
  9  8  1  0  0  0  0
  9 10  1  0  0  0  0
 11  9  1  0  0  0  0
 12 11  1  0  0  0  0
 12 13  1  0  0  0  0
 14 12  2  0  0  0  0
 15 14  1  0  0  0  0
 16 18  2  0  0  0  0
 16 14  1  0  0  0  0
 17 16  1  0  0  0  0
 18 20  1  0  0  0  0
 19 18  1  0  0  0  0
 20 21  1  0  0  0  0
 20 11  2  0  0  0  0
 23  1  2  0  0  0  0
 24 23  1  0  0  0  0
 24 25  2  0  0  0  0
 26 24  2  0  0  0  0
 27 23  1  0  0  0  0
 28 27  1  0  0  0  0
 29 27  2  0  0  0  0
 29 31  1  0  0  0  0
 30 29  1  0  0  0  0
 31 33  2  0  0  0  0
 32 31  1  0  0  0  0
 33  1  1  0  0  0  0
 33 34  1  0  0  0  0
M  END
>  <REMARK>
 34                     

$$$$
mol11.pdb
 OpenBabel11251619293D

 36 38  0  0  0  0  0  0  0  0999 V2000
   38.2130    8.2930   34.7380 C   0  0  0  0  0  0  0  0  0  0  0  0
   39.2340    8.3010   35.7930 C   0  0  0  0  0  0  0  0  0  0  0  0
   39.4590    9.4290   36.7310 C   0  0  0  0  0  0  0  0  0  0  0  0
   40.4090    9.0520   37.6080 N   0  0  0  0  0  0  0  0  0  0  0  0
   40.7190    9.6100   38.3850 H   0  0  0  0  0  0  0  0  0  0  0  0
   40.7930    7.7870   37.3670 C   0  0  0  0  0  0  0  0  0  0  0  0
   41.5710    7.1110   38.0170 O   0  0  0  0  0  0  0  0  0  0  0  0
   40.0800    7.3160   36.1470 C   0  0  0  0  0  0  0  0  0  0  0  0
   40.3360    6.0390   35.6980 N   0  0  0  0  0  0  0  0  0  0  0  0
   40.9430    5.5290   36.3460 H   0  0  0  0  0  0  0  0  0  0  0  0
   40.5450    5.6160   34.3670 C   0  0  0  0  0  0  0  0  0  0  0  0
   40.5530    4.2370   34.1090 C   0  0  0  0  0  0  0  0  0  0  0  0
   40.4310    3.5720   34.8880 H   0  0  0  0  0  0  0  0  0  0  0  0
   40.7240    3.7550   32.8110 C   0  0  0  0  0  0  0  0  0  0  0  0
   40.7230    2.0570   32.5240 Cl  0  0  0  0  0  0  0  0  0  0  0  0
   40.8890    4.6340   31.7460 C   0  0  0  0  0  0  0  0  0  0  0  0
   41.0170    4.2730   30.7880 H   0  0  0  0  0  0  0  0  0  0  0  0
   40.8800    6.0060   31.9850 C   0  0  0  0  0  0  0  0  0  0  0  0
   41.0010    6.6660   31.2010 H   0  0  0  0  0  0  0  0  0  0  0  0
   40.7070    6.4920   33.2850 C   0  0  0  0  0  0  0  0  0  0  0  0
   40.6990    7.5110   33.4500 H   0  0  0  0  0  0  0  0  0  0  0  0
   38.8770   10.4980   36.7320 O   0  0  0  0  0  0  0  0  0  0  0  0
   38.0150    9.4140   33.9190 C   0  0  0  0  0  0  0  0  0  0  0  0
   38.6090   10.2480   34.0490 H   0  0  0  0  0  0  0  0  0  0  0  0
   37.0270    9.4230   32.9290 C   0  0  0  0  0  0  0  0  0  0  0  0
   36.9480   10.5820   32.2060 O   0  0  0  0  0  0  0  0  0  0  0  0
   35.7820   10.7550   31.4090 C   0  0  0  0  0  0  0  0  0  0  0  0
   35.7170    9.9600   30.6950 H   0  0  0  0  0  0  0  0  0  0  0  0
   34.9160   10.7430   32.0370 H   0  0  0  0  0  0  0  0  0  0  0  0
   35.8370   11.6920   30.8950 H   0  0  0  0  0  0  0  0  0  0  0  0
   36.2320    8.2940   32.7410 C   0  0  0  0  0  0  0  0  0  0  0  0
   35.5100    8.2880   32.0040 H   0  0  0  0  0  0  0  0  0  0  0  0
   36.4130    7.1720   33.5490 C   0  0  0  0  0  0  0  0  0  0  0  0
   35.8210    6.3380   33.4110 H   0  0  0  0  0  0  0  0  0  0  0  0
   37.3920    7.1740   34.5440 C   0  0  0  0  0  0  0  0  0  0  0  0
   37.5120    6.3420   35.1430 H   0  0  0  0  0  0  0  0  0  0  0  0
  1  2  1  0  0  0  0
  2  8  2  0  0  0  0
  2  3  1  0  0  0  0
  3 22  2  0  0  0  0
  3  4  1  0  0  0  0
  4  5  1  0  0  0  0
  6  4  1  0  0  0  0
  6  7  2  0  0  0  0
  8  6  1  0  0  0  0
  9  8  1  0  0  0  0
  9 10  1  0  0  0  0
 11  9  1  0  0  0  0
 12 11  1  0  0  0  0
 12 13  1  0  0  0  0
 14 12  2  0  0  0  0
 15 14  1  0  0  0  0
 16 18  2  0  0  0  0
 16 14  1  0  0  0  0
 17 16  1  0  0  0  0
 18 20  1  0  0  0  0
 19 18  1  0  0  0  0
 20 21  1  0  0  0  0
 20 11  2  0  0  0  0
 23 24  1  0  0  0  0
 23  1  2  0  0  0  0
 25 23  1  0  0  0  0
 26 25  1  0  0  0  0
 27 29  1  0  0  0  0
 27 26  1  0  0  0  0
 28 27  1  0  0  0  0
 30 27  1  0  0  0  0
 31 25  2  0  0  0  0
 31 33  1  0  0  0  0
 32 31  1  0  0  0  0
 33 35  2  0  0  0  0
 34 33  1  0  0  0  0
 35  1  1  0  0  0  0
 35 36  1  0  0  0  0
M  END
>  <REMARK>
 36                     

$$$$
mol12.pdb
 OpenBabel11251619293D

 34 36  0  0  0  0  0  0  0  0999 V2000
   38.2070    8.3030   34.7360 C   0  0  0  0  0  0  0  0  0  0  0  0
   39.2300    8.2990   35.7930 C   0  0  0  0  0  0  0  0  0  0  0  0
   39.4580    9.4250   36.7330 C   0  0  0  0  0  0  0  0  0  0  0  0
   40.4210    9.0550   37.6000 N   0  0  0  0  0  0  0  0  0  0  0  0
   40.7910    9.6290   38.3090 H   0  0  0  0  0  0  0  0  0  0  0  0
   40.8040    7.7920   37.3580 C   0  0  0  0  0  0  0  0  0  0  0  0
   41.5920    7.1170   37.9970 O   0  0  0  0  0  0  0  0  0  0  0  0
   40.0780    7.3150   36.1460 C   0  0  0  0  0  0  0  0  0  0  0  0
   40.3330    6.0370   35.7000 N   0  0  0  0  0  0  0  0  0  0  0  0
   40.3720    5.3380   36.3920 H   0  0  0  0  0  0  0  0  0  0  0  0
   40.5450    5.6080   34.3730 C   0  0  0  0  0  0  0  0  0  0  0  0
   40.5480    4.2280   34.1210 C   0  0  0  0  0  0  0  0  0  0  0  0
   40.4190    3.5670   34.9030 H   0  0  0  0  0  0  0  0  0  0  0  0
   40.7230    3.7390   32.8260 C   0  0  0  0  0  0  0  0  0  0  0  0
   40.7190    2.0410   32.5470 Cl  0  0  0  0  0  0  0  0  0  0  0  0
   40.8960    4.6140   31.7590 C   0  0  0  0  0  0  0  0  0  0  0  0
   41.0250    4.2490   30.8030 H   0  0  0  0  0  0  0  0  0  0  0  0
   40.8940    5.9870   31.9910 C   0  0  0  0  0  0  0  0  0  0  0  0
   41.0240    6.6430   31.2050 H   0  0  0  0  0  0  0  0  0  0  0  0
   40.7160    6.4780   33.2890 C   0  0  0  0  0  0  0  0  0  0  0  0
   40.7110    7.4970   33.4500 H   0  0  0  0  0  0  0  0  0  0  0  0
   38.8650   10.4870   36.7390 O   0  0  0  0  0  0  0  0  0  0  0  0
   37.9750    9.4570   33.9690 C   0  0  0  0  0  0  0  0  0  0  0  0
   38.5330   10.3080   34.1380 H   0  0  0  0  0  0  0  0  0  0  0  0
   36.9860    9.4550   32.9730 C   0  0  0  0  0  0  0  0  0  0  0  0
   36.7580   10.6640   32.1720 N   0  0  0  0  0  0  0  0  0  0  0  0
   37.4070   11.6800   32.4620 O   0  0  0  0  0  0  0  0  0  0  0  0
   35.9390   10.5950   31.2450 O   0  0  0  0  0  0  0  0  0  0  0  0
   36.2180    8.3110   32.7300 C   0  0  0  0  0  0  0  0  0  0  0  0
   35.4960    8.3150   31.9930 H   0  0  0  0  0  0  0  0  0  0  0  0
   36.4380    7.1680   33.4930 C   0  0  0  0  0  0  0  0  0  0  0  0
   35.8750    6.3200   33.3240 H   0  0  0  0  0  0  0  0  0  0  0  0
   37.4200    7.1670   34.4890 C   0  0  0  0  0  0  0  0  0  0  0  0
   37.5690    6.3150   35.0530 H   0  0  0  0  0  0  0  0  0  0  0  0
  1  2  1  0  0  0  0
  2  8  2  0  0  0  0
  2  3  1  0  0  0  0
  3 22  2  0  0  0  0
  3  4  1  0  0  0  0
  4  5  1  0  0  0  0
  6  4  1  0  0  0  0
  6  7  2  0  0  0  0
  8  6  1  0  0  0  0
  9  8  1  0  0  0  0
  9 10  1  0  0  0  0
 11  9  1  0  0  0  0
 12 11  1  0  0  0  0
 12 13  1  0  0  0  0
 14 12  2  0  0  0  0
 15 14  1  0  0  0  0
 16 18  2  0  0  0  0
 16 14  1  0  0  0  0
 17 16  1  0  0  0  0
 18 20  1  0  0  0  0
 19 18  1  0  0  0  0
 20 21  1  0  0  0  0
 20 11  2  0  0  0  0
 23 24  1  0  0  0  0
 23  1  2  0  0  0  0
 25 23  1  0  0  0  0
 26 27  2  0  0  0  0
 26 25  1  0  0  0  0
 28 26  2  0  0  0  0
 29 25  2  0  0  0  0
 29 31  1  0  0  0  0
 30 29  1  0  0  0  0
 31 33  2  0  0  0  0
 32 31  1  0  0  0  0
 33  1  1  0  0  0  0
 33 34  1  0  0  0  0
M  END
>  <REMARK>
 34                     

$$$$
mol13.pdb
 OpenBabel11251619293D

 32 34  0  0  0  0  0  0  0  0999 V2000
   38.2040    8.3020   34.7290 C   0  0  0  0  0  0  0  0  0  0  0  0
   39.2200    8.3010   35.7830 C   0  0  0  0  0  0  0  0  0  0  0  0
   39.4370    9.4280   36.7160 C   0  0  0  0  0  0  0  0  0  0  0  0
   40.4060    9.0600   37.5770 N   0  0  0  0  0  0  0  0  0  0  0  0
   40.7660    9.6410   38.3110 H   0  0  0  0  0  0  0  0  0  0  0  0
   40.7860    7.7900   37.3430 C   0  0  0  0  0  0  0  0  0  0  0  0
   41.5770    7.1280   37.9910 O   0  0  0  0  0  0  0  0  0  0  0  0
   40.0590    7.3170   36.1350 C   0  0  0  0  0  0  0  0  0  0  0  0
   40.2990    6.0480   35.6720 N   0  0  0  0  0  0  0  0  0  0  0  0
   40.3880    5.3430   36.3970 H   0  0  0  0  0  0  0  0  0  0  0  0
   40.5330    5.6090   34.3630 C   0  0  0  0  0  0  0  0  0  0  0  0
   40.5460    4.2370   34.1050 C   0  0  0  0  0  0  0  0  0  0  0  0
   40.4220    3.5760   34.8880 H   0  0  0  0  0  0  0  0  0  0  0  0
   40.7220    3.7410   32.8180 C   0  0  0  0  0  0  0  0  0  0  0  0
   40.7220    2.0460   32.5380 Cl  0  0  0  0  0  0  0  0  0  0  0  0
   40.8930    4.6140   31.7600 C   0  0  0  0  0  0  0  0  0  0  0  0
   41.0240    4.2500   30.8030 H   0  0  0  0  0  0  0  0  0  0  0  0
   40.8870    5.9820   31.9920 C   0  0  0  0  0  0  0  0  0  0  0  0
   41.0170    6.6390   31.2070 H   0  0  0  0  0  0  0  0  0  0  0  0
   40.7060    6.4690   33.2840 C   0  0  0  0  0  0  0  0  0  0  0  0
   40.7000    7.4890   33.4440 H   0  0  0  0  0  0  0  0  0  0  0  0
   38.8450   10.4900   36.7230 O   0  0  0  0  0  0  0  0  0  0  0  0
   37.9870    9.4530   33.9810 C   0  0  0  0  0  0  0  0  0  0  0  0
   38.5490   10.2990   34.1620 H   0  0  0  0  0  0  0  0  0  0  0  0
   37.0180    9.4650   32.9930 C   0  0  0  0  0  0  0  0  0  0  0  0
   36.8370   10.3030   32.4180 H   0  0  0  0  0  0  0  0  0  0  0  0
   36.3140    8.3050   32.8210 C   0  0  0  0  0  0  0  0  0  0  0  0
   35.1280    8.2900   31.6250 Cl  0  0  0  0  0  0  0  0  0  0  0  0
   36.4690    7.1450   33.5240 C   0  0  0  0  0  0  0  0  0  0  0  0
   35.8960    6.3080   33.3330 H   0  0  0  0  0  0  0  0  0  0  0  0
   37.4400    7.1600   34.5070 C   0  0  0  0  0  0  0  0  0  0  0  0
   37.6000    6.3180   35.0810 H   0  0  0  0  0  0  0  0  0  0  0  0
  1  2  1  0  0  0  0
  2  8  2  0  0  0  0
  2  3  1  0  0  0  0
  3 22  2  0  0  0  0
  3  4  1  0  0  0  0
  4  5  1  0  0  0  0
  6  4  1  0  0  0  0
  6  7  2  0  0  0  0
  8  6  1  0  0  0  0
  9  8  1  0  0  0  0
  9 10  1  0  0  0  0
 11  9  1  0  0  0  0
 12 11  1  0  0  0  0
 12 13  1  0  0  0  0
 14 12  2  0  0  0  0
 15 14  1  0  0  0  0
 16 18  2  0  0  0  0
 16 14  1  0  0  0  0
 17 16  1  0  0  0  0
 18 20  1  0  0  0  0
 19 18  1  0  0  0  0
 20 21  1  0  0  0  0
 20 11  2  0  0  0  0
 23 24  1  0  0  0  0
 23  1  2  0  0  0  0
 25 23  1  0  0  0  0
 26 25  1  0  0  0  0
 27 25  2  0  0  0  0
 27 29  1  0  0  0  0
 28 27  1  0  0  0  0
 29 31  2  0  0  0  0
 30 29  1  0  0  0  0
 31  1  1  0  0  0  0
 31 32  1  0  0  0  0
M  END
>  <REMARK>
 32                     

$$$$
mol14.pdb
 OpenBabel11251619293D

 36 38  0  0  0  0  0  0  0  0999 V2000
   38.2040    8.2960   34.7510 C   0  0  0  0  0  0  0  0  0  0  0  0
   39.2270    8.3050   35.8030 C   0  0  0  0  0  0  0  0  0  0  0  0
   39.4910    9.4440   36.7200 C   0  0  0  0  0  0  0  0  0  0  0  0
   40.4310    9.0520   37.6020 N   0  0  0  0  0  0  0  0  0  0  0  0
   40.7670    9.6160   38.3640 H   0  0  0  0  0  0  0  0  0  0  0  0
   40.7920    7.7800   37.3700 C   0  0  0  0  0  0  0  0  0  0  0  0
   41.5660    7.0950   38.0170 O   0  0  0  0  0  0  0  0  0  0  0  0
   40.0620    7.3120   36.1600 C   0  0  0  0  0  0  0  0  0  0  0  0
   40.2960    6.0300   35.7090 N   0  0  0  0  0  0  0  0  0  0  0  0
   40.8930    5.5080   36.3570 H   0  0  0  0  0  0  0  0  0  0  0  0
   40.5210    5.6210   34.3750 C   0  0  0  0  0  0  0  0  0  0  0  0
   40.5010    4.2460   34.0960 C   0  0  0  0  0  0  0  0  0  0  0  0
   40.3480    3.5710   34.8620 H   0  0  0  0  0  0  0  0  0  0  0  0
   40.6860    3.7820   32.7920 C   0  0  0  0  0  0  0  0  0  0  0  0
   40.6500    2.0900   32.4760 Cl  0  0  0  0  0  0  0  0  0  0  0  0
   40.8950    4.6730   31.7460 C   0  0  0  0  0  0  0  0  0  0  0  0
   41.0340    4.3240   30.7850 H   0  0  0  0  0  0  0  0  0  0  0  0
   40.9150    6.0420   32.0060 C   0  0  0  0  0  0  0  0  0  0  0  0
   41.0700    6.7110   31.2360 H   0  0  0  0  0  0  0  0  0  0  0  0
   40.7250    6.5090   33.3110 C   0  0  0  0  0  0  0  0  0  0  0  0
   40.7350    7.5250   33.4930 H   0  0  0  0  0  0  0  0  0  0  0  0
   38.9520   10.5350   36.6940 O   0  0  0  0  0  0  0  0  0  0  0  0
   37.9730    9.4180   33.9500 C   0  0  0  0  0  0  0  0  0  0  0  0
   38.5220   10.2780   34.1040 H   0  0  0  0  0  0  0  0  0  0  0  0
   37.0040    9.3860   32.9410 C   0  0  0  0  0  0  0  0  0  0  0  0
   36.8510   10.2220   32.3550 H   0  0  0  0  0  0  0  0  0  0  0  0
   36.2420    8.2380   32.7170 C   0  0  0  0  0  0  0  0  0  0  0  0
   35.3370    8.3340   31.6960 O   0  0  0  0  0  0  0  0  0  0  0  0
   34.5760    7.1680   31.4060 C   0  0  0  0  0  0  0  0  0  0  0  0
   35.2350    6.3700   31.1360 H   0  0  0  0  0  0  0  0  0  0  0  0
   34.0110    6.8870   32.2700 H   0  0  0  0  0  0  0  0  0  0  0  0
   33.9090    7.3700   30.5940 H   0  0  0  0  0  0  0  0  0  0  0  0
   36.4490    7.1230   33.5230 C   0  0  0  0  0  0  0  0  0  0  0  0
   35.8880    6.2700   33.3750 H   0  0  0  0  0  0  0  0  0  0  0  0
   37.4160    7.1560   34.5340 C   0  0  0  0  0  0  0  0  0  0  0  0
   37.5520    6.3260   35.1310 H   0  0  0  0  0  0  0  0  0  0  0  0
  1  2  1  0  0  0  0
  2  8  2  0  0  0  0
  2  3  1  0  0  0  0
  3  4  1  0  0  0  0
  4  5  1  0  0  0  0
  6  4  1  0  0  0  0
  6  7  2  0  0  0  0
  8  6  1  0  0  0  0
  9  8  1  0  0  0  0
  9 10  1  0  0  0  0
 11  9  1  0  0  0  0
 12 11  1  0  0  0  0
 12 13  1  0  0  0  0
 14 12  2  0  0  0  0
 15 14  1  0  0  0  0
 16 18  2  0  0  0  0
 16 14  1  0  0  0  0
 17 16  1  0  0  0  0
 18 20  1  0  0  0  0
 19 18  1  0  0  0  0
 20 21  1  0  0  0  0
 20 11  2  0  0  0  0
 22  3  2  0  0  0  0
 23 24  1  0  0  0  0
 23  1  2  0  0  0  0
 25 23  1  0  0  0  0
 26 25  1  0  0  0  0
 27 25  2  0  0  0  0
 27 33  1  0  0  0  0
 28 27  1  0  0  0  0
 29 28  1  0  0  0  0
 29 31  1  0  0  0  0
 30 29  1  0  0  0  0
 32 29  1  0  0  0  0
 33 35  2  0  0  0  0
 34 33  1  0  0  0  0
 35  1  1  0  0  0  0
 35 36  1  0  0  0  0
M  END
>  <REMARK>
 36                     

$$$$
mol15.pdb
 OpenBabel11251619293D

 33 35  0  0  0  0  0  0  0  0999 V2000
   40.0720    7.3130   36.1540 C   0  0  0  0  0  0  0  0  0  0  0  0
   40.3370    6.0390   35.7020 N   0  0  0  0  0  0  0  0  0  0  0  0
   40.9450    5.5270   36.3480 H   0  0  0  0  0  0  0  0  0  0  0  0
   40.5450    5.6130   34.3720 C   0  0  0  0  0  0  0  0  0  0  0  0
   40.5820    4.2330   34.1220 C   0  0  0  0  0  0  0  0  0  0  0  0
   40.4850    3.5700   34.9070 H   0  0  0  0  0  0  0  0  0  0  0  0
   40.7480    3.7480   32.8280 C   0  0  0  0  0  0  0  0  0  0  0  0
   40.7740    2.3950   32.6540 O   0  0  0  0  0  0  0  0  0  0  0  0
   40.8840    2.2060   31.7080 H   0  0  0  0  0  0  0  0  0  0  0  0
   40.8770    4.6170   31.7520 C   0  0  0  0  0  0  0  0  0  0  0  0
   41.0000    4.2510   30.7950 H   0  0  0  0  0  0  0  0  0  0  0  0
   40.8380    5.9900   31.9830 C   0  0  0  0  0  0  0  0  0  0  0  0
   40.9330    6.6470   31.1930 H   0  0  0  0  0  0  0  0  0  0  0  0
   40.6710    6.4820   33.2830 C   0  0  0  0  0  0  0  0  0  0  0  0
   40.6400    7.5010   33.4400 H   0  0  0  0  0  0  0  0  0  0  0  0
   40.7980    7.7890   37.3650 C   0  0  0  0  0  0  0  0  0  0  0  0
   40.4050    9.0470   37.6150 N   0  0  0  0  0  0  0  0  0  0  0  0
   40.7310    9.6120   38.3810 H   0  0  0  0  0  0  0  0  0  0  0  0
   39.4560    9.4270   36.7370 C   0  0  0  0  0  0  0  0  0  0  0  0
   38.8910   10.5050   36.7290 O   0  0  0  0  0  0  0  0  0  0  0  0
   39.2220    8.2950   35.8030 C   0  0  0  0  0  0  0  0  0  0  0  0
   38.2040    8.2960   34.7440 C   0  0  0  0  0  0  0  0  0  0  0  0
   37.9800    9.4430   33.9660 C   0  0  0  0  0  0  0  0  0  0  0  0
   38.5380   10.2930   34.1400 H   0  0  0  0  0  0  0  0  0  0  0  0
   37.0110    9.4480   32.9600 C   0  0  0  0  0  0  0  0  0  0  0  0
   36.8600   10.2980   32.3940 H   0  0  0  0  0  0  0  0  0  0  0  0
   36.2480    8.3090   32.7190 C   0  0  0  0  0  0  0  0  0  0  0  0
   35.5350    8.3120   31.9730 H   0  0  0  0  0  0  0  0  0  0  0  0
   36.4490    7.1650   33.4870 C   0  0  0  0  0  0  0  0  0  0  0  0
   35.8840    6.3190   33.3110 H   0  0  0  0  0  0  0  0  0  0  0  0
   37.4160    7.1620   34.4960 C   0  0  0  0  0  0  0  0  0  0  0  0
   37.5520    6.3130   35.0670 H   0  0  0  0  0  0  0  0  0  0  0  0
   41.5990    7.1230   37.9990 O   0  0  0  0  0  0  0  0  0  0  0  0
  1 16  1  0  0  0  0
  2  1  1  0  0  0  0
  2  3  1  0  0  0  0
  4  2  1  0  0  0  0
  5  4  1  0  0  0  0
  5  6  1  0  0  0  0
  7  5  2  0  0  0  0
  8  7  1  0  0  0  0
  9  8  1  0  0  0  0
 10 12  2  0  0  0  0
 10  7  1  0  0  0  0
 11 10  1  0  0  0  0
 12 14  1  0  0  0  0
 13 12  1  0  0  0  0
 14 15  1  0  0  0  0
 14  4  2  0  0  0  0
 16 17  1  0  0  0  0
 16 33  2  0  0  0  0
 17 18  1  0  0  0  0
 19 17  1  0  0  0  0
 20 19  2  0  0  0  0
 21  1  2  0  0  0  0
 21 19  1  0  0  0  0
 22 21  1  0  0  0  0
 23 24  1  0  0  0  0
 23 22  2  0  0  0  0
 25 23  1  0  0  0  0
 26 25  1  0  0  0  0
 27 25  2  0  0  0  0
 27 29  1  0  0  0  0
 28 27  1  0  0  0  0
 29 31  2  0  0  0  0
 30 29  1  0  0  0  0
 31 22  1  0  0  0  0
 31 32  1  0  0  0  0
M  END
>  <REMARK>
 33                     

$$$$
mol16.pdb
 OpenBabel11251619293D

 33 35  0  0  0  0  0  0  0  0999 V2000
   39.2680    8.3240   35.7820 C   0  0  0  0  0  0  0  0  0  0  0  0
   39.3920    9.3970   36.8010 C   0  0  0  0  0  0  0  0  0  0  0  0
   40.4190    9.0750   37.6130 N   0  0  0  0  0  0  0  0  0  0  0  0
   40.6550    9.5880   38.4440 H   0  0  0  0  0  0  0  0  0  0  0  0
   40.8210    7.8190   37.3630 C   0  0  0  0  0  0  0  0  0  0  0  0
   41.5790    7.1360   38.0300 O   0  0  0  0  0  0  0  0  0  0  0  0
   40.1310    7.3520   36.1260 C   0  0  0  0  0  0  0  0  0  0  0  0
   40.4110    6.0860   35.6680 N   0  0  0  0  0  0  0  0  0  0  0  0
   41.0140    5.5690   36.3140 H   0  0  0  0  0  0  0  0  0  0  0  0
   40.5660    5.6340   34.3440 C   0  0  0  0  0  0  0  0  0  0  0  0
   40.5630    4.2500   34.1180 C   0  0  0  0  0  0  0  0  0  0  0  0
   40.4650    3.6030   34.9160 H   0  0  0  0  0  0  0  0  0  0  0  0
   40.6910    3.7370   32.8290 C   0  0  0  0  0  0  0  0  0  0  0  0
   40.6860    2.3820   32.6820 O   0  0  0  0  0  0  0  0  0  0  0  0
   40.7950    2.1710   31.7400 H   0  0  0  0  0  0  0  0  0  0  0  0
   40.8190    4.5850   31.7370 C   0  0  0  0  0  0  0  0  0  0  0  0
   40.9150    4.2000   30.7840 H   0  0  0  0  0  0  0  0  0  0  0  0
   40.8160    5.9630   31.9440 C   0  0  0  0  0  0  0  0  0  0  0  0
   40.9090    6.6040   31.1400 H   0  0  0  0  0  0  0  0  0  0  0  0
   40.6870    6.4820   33.2380 C   0  0  0  0  0  0  0  0  0  0  0  0
   40.6810    7.5040   33.3780 H   0  0  0  0  0  0  0  0  0  0  0  0
   38.6460   10.3480   36.9410 O   0  0  0  0  0  0  0  0  0  0  0  0
   38.2630    8.3320   34.7120 C   0  0  0  0  0  0  0  0  0  0  0  0
   38.1390    9.3870   33.7910 C   0  0  0  0  0  0  0  0  0  0  0  0
   39.2510   10.7130   33.7450 Cl  0  0  0  0  0  0  0  0  0  0  0  0
   37.1340    9.3680   32.8160 C   0  0  0  0  0  0  0  0  0  0  0  0
   37.0440   10.1560   32.1560 H   0  0  0  0  0  0  0  0  0  0  0  0
   36.2550    8.2900   32.7330 C   0  0  0  0  0  0  0  0  0  0  0  0
   35.5150    8.2790   32.0140 H   0  0  0  0  0  0  0  0  0  0  0  0
   36.3790    7.2280   33.6230 C   0  0  0  0  0  0  0  0  0  0  0  0
   35.7380    6.4220   33.5560 H   0  0  0  0  0  0  0  0  0  0  0  0
   37.3700    7.2510   34.6080 C   0  0  0  0  0  0  0  0  0  0  0  0
   37.4480    6.4620   35.2690 H   0  0  0  0  0  0  0  0  0  0  0  0
  1  7  2  0  0  0  0
  1  2  1  0  0  0  0
  2 22  2  0  0  0  0
  2  3  1  0  0  0  0
  3  4  1  0  0  0  0
  5  3  1  0  0  0  0
  5  6  2  0  0  0  0
  7  5  1  0  0  0  0
  8  7  1  0  0  0  0
  8  9  1  0  0  0  0
 10  8  1  0  0  0  0
 11 10  1  0  0  0  0
 11 12  1  0  0  0  0
 13 11  2  0  0  0  0
 14 13  1  0  0  0  0
 15 14  1  0  0  0  0
 16 18  2  0  0  0  0
 16 13  1  0  0  0  0
 17 16  1  0  0  0  0
 18 20  1  0  0  0  0
 19 18  1  0  0  0  0
 20 21  1  0  0  0  0
 20 10  2  0  0  0  0
 23  1  1  0  0  0  0
 24 23  2  0  0  0  0
 25 24  1  0  0  0  0
 26 24  1  0  0  0  0
 27 26  1  0  0  0  0
 28 26  2  0  0  0  0
 28 30  1  0  0  0  0
 29 28  1  0  0  0  0
 30 32  2  0  0  0  0
 31 30  1  0  0  0  0
 32 23  1  0  0  0  0
 32 33  1  0  0  0  0
M  END
>  <REMARK>
 33                     

$$$$
mol17.pdb
 OpenBabel11251619293D

 37 39  0  0  0  0  0  0  0  0999 V2000
   38.2450    8.3120   34.7200 C   0  0  0  0  0  0  0  0  0  0  0  0
   39.2520    8.3110   35.7870 C   0  0  0  0  0  0  0  0  0  0  0  0
   39.4090    9.4080   36.7740 C   0  0  0  0  0  0  0  0  0  0  0  0
   40.4170    9.0700   37.6010 N   0  0  0  0  0  0  0  0  0  0  0  0
   40.6690    9.5950   38.4200 H   0  0  0  0  0  0  0  0  0  0  0  0
   40.8060    7.8060   37.3620 C   0  0  0  0  0  0  0  0  0  0  0  0
   41.5620    7.1240   38.0340 O   0  0  0  0  0  0  0  0  0  0  0  0
   40.1110    7.3350   36.1310 C   0  0  0  0  0  0  0  0  0  0  0  0
   40.3840    6.0660   35.6750 N   0  0  0  0  0  0  0  0  0  0  0  0
   40.9870    5.5500   36.3210 H   0  0  0  0  0  0  0  0  0  0  0  0
   40.5610    5.6300   34.3470 C   0  0  0  0  0  0  0  0  0  0  0  0
   40.5870    4.2480   34.1060 C   0  0  0  0  0  0  0  0  0  0  0  0
   40.4970    3.5910   34.8970 H   0  0  0  0  0  0  0  0  0  0  0  0
   40.7330    3.7520   32.8130 C   0  0  0  0  0  0  0  0  0  0  0  0
   40.7540    2.3980   32.6510 O   0  0  0  0  0  0  0  0  0  0  0  0
   40.8600    2.2010   31.7050 H   0  0  0  0  0  0  0  0  0  0  0  0
   40.8510    4.6120   31.7290 C   0  0  0  0  0  0  0  0  0  0  0  0
   40.9610    4.2380   30.7730 H   0  0  0  0  0  0  0  0  0  0  0  0
   40.8190    5.9880   31.9510 C   0  0  0  0  0  0  0  0  0  0  0  0
   40.9040    6.6390   31.1550 H   0  0  0  0  0  0  0  0  0  0  0  0
   40.6720    6.4910   33.2490 C   0  0  0  0  0  0  0  0  0  0  0  0
   40.6450    7.5120   33.3990 H   0  0  0  0  0  0  0  0  0  0  0  0
   38.7040   10.3960   36.8860 O   0  0  0  0  0  0  0  0  0  0  0  0
   38.1640    9.3650   33.7860 C   0  0  0  0  0  0  0  0  0  0  0  0
   39.1390   10.3290   33.8670 O   0  0  0  0  0  0  0  0  0  0  0  0
   38.9140   11.5360   33.1470 C   0  0  0  0  0  0  0  0  0  0  0  0
   38.8120   11.3160   32.1050 H   0  0  0  0  0  0  0  0  0  0  0  0
   38.0180   12.0020   33.5020 H   0  0  0  0  0  0  0  0  0  0  0  0
   39.7420   12.1980   33.2930 H   0  0  0  0  0  0  0  0  0  0  0  0
   37.1610    9.3450   32.8090 C   0  0  0  0  0  0  0  0  0  0  0  0
   37.0950   10.1160   32.1260 H   0  0  0  0  0  0  0  0  0  0  0  0
   36.2490    8.2890   32.7520 C   0  0  0  0  0  0  0  0  0  0  0  0
   35.5090    8.2870   32.0330 H   0  0  0  0  0  0  0  0  0  0  0  0
   36.3350    7.2410   33.6610 C   0  0  0  0  0  0  0  0  0  0  0  0
   35.6680    6.4560   33.6090 H   0  0  0  0  0  0  0  0  0  0  0  0
   37.3250    7.2530   34.6430 C   0  0  0  0  0  0  0  0  0  0  0  0
   37.3820    6.4760   35.3200 H   0  0  0  0  0  0  0  0  0  0  0  0
  1  2  1  0  0  0  0
  2  8  2  0  0  0  0
  2  3  1  0  0  0  0
  3 23  2  0  0  0  0
  3  4  1  0  0  0  0
  4  5  1  0  0  0  0
  6  4  1  0  0  0  0
  6  7  2  0  0  0  0
  8  6  1  0  0  0  0
  9  8  1  0  0  0  0
  9 10  1  0  0  0  0
 11  9  1  0  0  0  0
 12 11  1  0  0  0  0
 12 13  1  0  0  0  0
 14 12  2  0  0  0  0
 15 14  1  0  0  0  0
 16 15  1  0  0  0  0
 17 19  2  0  0  0  0
 17 14  1  0  0  0  0
 18 17  1  0  0  0  0
 19 21  1  0  0  0  0
 20 19  1  0  0  0  0
 21 22  1  0  0  0  0
 21 11  2  0  0  0  0
 24 25  1  0  0  0  0
 24  1  2  0  0  0  0
 26 29  1  0  0  0  0
 26 28  1  0  0  0  0
 26 25  1  0  0  0  0
 27 26  1  0  0  0  0
 30 24  1  0  0  0  0
 31 30  1  0  0  0  0
 32 30  2  0  0  0  0
 32 34  1  0  0  0  0
 33 32  1  0  0  0  0
 34 36  2  0  0  0  0
 35 34  1  0  0  0  0
 36  1  1  0  0  0  0
 36 37  1  0  0  0  0
M  END
>  <REMARK>
 37                     

$$$$
mol18.pdb
 OpenBabel11251619293D

 35 37  0  0  0  0  0  0  0  0999 V2000
   38.2790    8.3290   34.7090 C   0  0  0  0  0  0  0  0  0  0  0  0
   39.2680    8.3070   35.7950 C   0  0  0  0  0  0  0  0  0  0  0  0
   39.3910    9.3900   36.8000 C   0  0  0  0  0  0  0  0  0  0  0  0
   40.3650    9.0450   37.6610 N   0  0  0  0  0  0  0  0  0  0  0  0
   40.7040    9.6170   38.3870 H   0  0  0  0  0  0  0  0  0  0  0  0
   40.8090    7.8060   37.3880 C   0  0  0  0  0  0  0  0  0  0  0  0
   41.5940    7.1380   38.0380 O   0  0  0  0  0  0  0  0  0  0  0  0
   40.1350    7.3400   36.1410 C   0  0  0  0  0  0  0  0  0  0  0  0
   40.4320    6.0820   35.6720 N   0  0  0  0  0  0  0  0  0  0  0  0
   40.5630    5.3930   36.3630 H   0  0  0  0  0  0  0  0  0  0  0  0
   40.5750    5.6390   34.3430 C   0  0  0  0  0  0  0  0  0  0  0  0
   40.5690    4.2560   34.1060 C   0  0  0  0  0  0  0  0  0  0  0  0
   40.4770    3.6030   34.9000 H   0  0  0  0  0  0  0  0  0  0  0  0
   40.6860    3.7540   32.8120 C   0  0  0  0  0  0  0  0  0  0  0  0
   40.6830    2.3990   32.6550 O   0  0  0  0  0  0  0  0  0  0  0  0
   40.7600    2.0260   31.7990 H   0  0  0  0  0  0  0  0  0  0  0  0
   40.8030    4.6090   31.7250 C   0  0  0  0  0  0  0  0  0  0  0  0
   40.8840    4.2310   30.7680 H   0  0  0  0  0  0  0  0  0  0  0  0
   40.8100    5.9850   31.9430 C   0  0  0  0  0  0  0  0  0  0  0  0
   40.8980    6.6320   31.1430 H   0  0  0  0  0  0  0  0  0  0  0  0
   40.6980    6.4940   33.2420 C   0  0  0  0  0  0  0  0  0  0  0  0
   40.7060    7.5150   33.3900 H   0  0  0  0  0  0  0  0  0  0  0  0
   38.6870   10.3820   36.8500 O   0  0  0  0  0  0  0  0  0  0  0  0
   38.1570    9.3620   33.7560 C   0  0  0  0  0  0  0  0  0  0  0  0
   39.1180   10.4670   33.6870 N   0  0  0  0  0  0  0  0  0  0  0  0
   40.2970   10.2260   33.9840 O   0  0  0  0  0  0  0  0  0  0  0  0
   38.7060   11.5590   33.2700 O   0  0  0  0  0  0  0  0  0  0  0  0
   37.1450    9.3360   32.7790 C   0  0  0  0  0  0  0  0  0  0  0  0
   37.0710   10.1020   32.0910 H   0  0  0  0  0  0  0  0  0  0  0  0
   36.2420    8.2750   32.7410 C   0  0  0  0  0  0  0  0  0  0  0  0
   35.4970    8.2550   32.0270 H   0  0  0  0  0  0  0  0  0  0  0  0
   36.3490    7.2430   33.6690 C   0  0  0  0  0  0  0  0  0  0  0  0
   35.6850    6.4540   33.6380 H   0  0  0  0  0  0  0  0  0  0  0  0
   37.3530    7.2710   34.6440 C   0  0  0  0  0  0  0  0  0  0  0  0
   37.4150    6.5010   35.3280 H   0  0  0  0  0  0  0  0  0  0  0  0
  1  2  1  0  0  0  0
  2  8  2  0  0  0  0
  2  3  1  0  0  0  0
  3 23  2  0  0  0  0
  3  4  1  0  0  0  0
  4  5  1  0  0  0  0
  6  4  1  0  0  0  0
  6  7  2  0  0  0  0
  8  6  1  0  0  0  0
  9  8  1  0  0  0  0
  9 10  1  0  0  0  0
 11  9  1  0  0  0  0
 12 11  1  0  0  0  0
 12 13  1  0  0  0  0
 14 12  2  0  0  0  0
 15 14  1  0  0  0  0
 16 15  1  0  0  0  0
 17 19  2  0  0  0  0
 17 14  1  0  0  0  0
 18 17  1  0  0  0  0
 19 21  1  0  0  0  0
 20 19  1  0  0  0  0
 21 22  1  0  0  0  0
 21 11  2  0  0  0  0
 24  1  2  0  0  0  0
 25 24  1  0  0  0  0
 25 26  2  0  0  0  0
 27 25  2  0  0  0  0
 28 24  1  0  0  0  0
 29 28  1  0  0  0  0
 30 28  2  0  0  0  0
 30 32  1  0  0  0  0
 31 30  1  0  0  0  0
 32 34  2  0  0  0  0
 33 32  1  0  0  0  0
 34  1  1  0  0  0  0
 34 35  1  0  0  0  0
M  END
>  <REMARK>
 35                     

$$$$
mol19.pdb
 OpenBabel11251619293D

 33 35  0  0  0  0  0  0  0  0999 V2000
   38.2880    8.3190   34.7240 C   0  0  0  0  0  0  0  0  0  0  0  0
   39.2720    8.3270   35.7810 C   0  0  0  0  0  0  0  0  0  0  0  0
   39.3860    9.4030   36.7850 C   0  0  0  0  0  0  0  0  0  0  0  0
   40.3630    9.0530   37.6440 N   0  0  0  0  0  0  0  0  0  0  0  0
   40.6840    9.6210   38.4060 H   0  0  0  0  0  0  0  0  0  0  0  0
   40.7910    7.8020   37.3830 C   0  0  0  0  0  0  0  0  0  0  0  0
   41.5710    7.1390   38.0400 O   0  0  0  0  0  0  0  0  0  0  0  0
   40.1220    7.3460   36.1330 C   0  0  0  0  0  0  0  0  0  0  0  0
   40.3990    6.0950   35.6510 N   0  0  0  0  0  0  0  0  0  0  0  0
   40.5680    5.3970   36.3700 H   0  0  0  0  0  0  0  0  0  0  0  0
   40.5660    5.6480   34.3360 C   0  0  0  0  0  0  0  0  0  0  0  0
   40.5580    4.2730   34.0870 C   0  0  0  0  0  0  0  0  0  0  0  0
   40.4590    3.6210   34.8810 H   0  0  0  0  0  0  0  0  0  0  0  0
   40.6800    3.7560   32.8010 C   0  0  0  0  0  0  0  0  0  0  0  0
   40.6660    2.3960   32.6770 O   0  0  0  0  0  0  0  0  0  0  0  0
   40.7550    2.0750   31.7650 H   0  0  0  0  0  0  0  0  0  0  0  0
   40.8060    4.6120   31.7270 C   0  0  0  0  0  0  0  0  0  0  0  0
   40.8920    4.2370   30.7690 H   0  0  0  0  0  0  0  0  0  0  0  0
   40.8160    5.9870   31.9480 C   0  0  0  0  0  0  0  0  0  0  0  0
   40.9120    6.6350   31.1510 H   0  0  0  0  0  0  0  0  0  0  0  0
   40.6970    6.4920   33.2430 C   0  0  0  0  0  0  0  0  0  0  0  0
   40.7070    7.5130   33.3910 H   0  0  0  0  0  0  0  0  0  0  0  0
   38.6950   10.4020   36.8400 O   0  0  0  0  0  0  0  0  0  0  0  0
   38.1960    9.3430   33.8000 C   0  0  0  0  0  0  0  0  0  0  0  0
   38.8540   10.1380   33.8080 H   0  0  0  0  0  0  0  0  0  0  0  0
   37.1820    9.2530   32.8640 C   0  0  0  0  0  0  0  0  0  0  0  0
   37.0630   10.4890   31.7240 Cl  0  0  0  0  0  0  0  0  0  0  0  0
   36.2510    8.2600   32.7450 C   0  0  0  0  0  0  0  0  0  0  0  0
   35.5210    8.2740   32.0160 H   0  0  0  0  0  0  0  0  0  0  0  0
   36.3530    7.2400   33.6630 C   0  0  0  0  0  0  0  0  0  0  0  0
   35.6940    6.4460   33.6400 H   0  0  0  0  0  0  0  0  0  0  0  0
   37.3560    7.2950   34.6210 C   0  0  0  0  0  0  0  0  0  0  0  0
   37.4130    6.5220   35.3030 H   0  0  0  0  0  0  0  0  0  0  0  0
  1  2  1  0  0  0  0
  2  8  2  0  0  0  0
  2  3  1  0  0  0  0
  3 23  2  0  0  0  0
  3  4  1  0  0  0  0
  4  5  1  0  0  0  0
  6  4  1  0  0  0  0
  6  7  2  0  0  0  0
  8  6  1  0  0  0  0
  9  8  1  0  0  0  0
  9 10  1  0  0  0  0
 11  9  1  0  0  0  0
 12 11  1  0  0  0  0
 12 13  1  0  0  0  0
 14 12  2  0  0  0  0
 15 14  1  0  0  0  0
 16 15  1  0  0  0  0
 17 19  2  0  0  0  0
 17 14  1  0  0  0  0
 18 17  1  0  0  0  0
 19 21  1  0  0  0  0
 20 19  1  0  0  0  0
 21 22  1  0  0  0  0
 21 11  2  0  0  0  0
 24 25  1  0  0  0  0
 24  1  2  0  0  0  0
 26 24  1  0  0  0  0
 27 26  1  0  0  0  0
 28 26  2  0  0  0  0
 28 30  1  0  0  0  0
 29 28  1  0  0  0  0
 30 32  2  0  0  0  0
 31 30  1  0  0  0  0
 32  1  1  0  0  0  0
 32 33  1  0  0  0  0
M  END
>  <REMARK>
 33                     

$$$$
mol20.pdb
 OpenBabel11251619293D

 37 39  0  0  0  0  0  0  0  0999 V2000
   38.2160    8.2890   34.7510 C   0  0  0  0  0  0  0  0  0  0  0  0
   39.2330    8.3010   35.8060 C   0  0  0  0  0  0  0  0  0  0  0  0
   39.4450    9.4250   36.7490 C   0  0  0  0  0  0  0  0  0  0  0  0
   40.3950    9.0480   37.6270 N   0  0  0  0  0  0  0  0  0  0  0  0
   40.6970    9.6010   38.4110 H   0  0  0  0  0  0  0  0  0  0  0  0
   40.7900    7.7880   37.3780 C   0  0  0  0  0  0  0  0  0  0  0  0
   41.5720    7.1130   38.0270 O   0  0  0  0  0  0  0  0  0  0  0  0
   40.0850    7.3210   36.1520 C   0  0  0  0  0  0  0  0  0  0  0  0
   40.3470    6.0510   35.6890 N   0  0  0  0  0  0  0  0  0  0  0  0
   40.9530    5.5290   36.3300 H   0  0  0  0  0  0  0  0  0  0  0  0
   40.5430    5.6330   34.3560 C   0  0  0  0  0  0  0  0  0  0  0  0
   40.5670    4.2550   34.0930 C   0  0  0  0  0  0  0  0  0  0  0  0
   40.4660    3.5850   34.8720 H   0  0  0  0  0  0  0  0  0  0  0  0
   40.7260    3.7800   32.7930 C   0  0  0  0  0  0  0  0  0  0  0  0
   40.7410    2.4280   32.6090 O   0  0  0  0  0  0  0  0  0  0  0  0
   40.8520    2.2470   31.6610 H   0  0  0  0  0  0  0  0  0  0  0  0
   40.8630    4.6570   31.7250 C   0  0  0  0  0  0  0  0  0  0  0  0
   40.9820    4.2980   30.7650 H   0  0  0  0  0  0  0  0  0  0  0  0
   40.8370    6.0270   31.9680 C   0  0  0  0  0  0  0  0  0  0  0  0
   40.9370    6.6900   31.1830 H   0  0  0  0  0  0  0  0  0  0  0  0
   40.6760    6.5110   33.2730 C   0  0  0  0  0  0  0  0  0  0  0  0
   40.6550    7.5290   33.4390 H   0  0  0  0  0  0  0  0  0  0  0  0
   38.8530   10.4890   36.7530 O   0  0  0  0  0  0  0  0  0  0  0  0
   38.0980    9.3570   33.8510 C   0  0  0  0  0  0  0  0  0  0  0  0
   38.7290   10.1680   33.9410 H   0  0  0  0  0  0  0  0  0  0  0  0
   37.1380    9.3410   32.8330 C   0  0  0  0  0  0  0  0  0  0  0  0
   37.1570   10.4330   32.0090 O   0  0  0  0  0  0  0  0  0  0  0  0
   36.2400   10.4350   30.9230 C   0  0  0  0  0  0  0  0  0  0  0  0
   36.4340    9.5930   30.2910 H   0  0  0  0  0  0  0  0  0  0  0  0
   35.2400   10.3750   31.3000 H   0  0  0  0  0  0  0  0  0  0  0  0
   36.3560   11.3380   30.3600 H   0  0  0  0  0  0  0  0  0  0  0  0
   36.2660    8.2570   32.7290 C   0  0  0  0  0  0  0  0  0  0  0  0
   35.5500    8.2410   31.9860 H   0  0  0  0  0  0  0  0  0  0  0  0
   36.3620    7.1940   33.6300 C   0  0  0  0  0  0  0  0  0  0  0  0
   35.7130    6.3960   33.5540 H   0  0  0  0  0  0  0  0  0  0  0  0
   37.3320    7.2080   34.6310 C   0  0  0  0  0  0  0  0  0  0  0  0
   37.4000    6.4160   35.2890 H   0  0  0  0  0  0  0  0  0  0  0  0
  1  2  1  0  0  0  0
  2  8  2  0  0  0  0
  2  3  1  0  0  0  0
  3 23  2  0  0  0  0
  3  4  1  0  0  0  0
  4  5  1  0  0  0  0
  6  4  1  0  0  0  0
  6  7  2  0  0  0  0
  8  6  1  0  0  0  0
  9  8  1  0  0  0  0
  9 10  1  0  0  0  0
 11  9  1  0  0  0  0
 12 11  1  0  0  0  0
 12 13  1  0  0  0  0
 14 12  2  0  0  0  0
 15 14  1  0  0  0  0
 16 15  1  0  0  0  0
 17 19  2  0  0  0  0
 17 14  1  0  0  0  0
 18 17  1  0  0  0  0
 19 21  1  0  0  0  0
 20 19  1  0  0  0  0
 21 22  1  0  0  0  0
 21 11  2  0  0  0  0
 24 25  1  0  0  0  0
 24  1  2  0  0  0  0
 26 24  1  0  0  0  0
 27 26  1  0  0  0  0
 28 30  1  0  0  0  0
 28 27  1  0  0  0  0
 29 28  1  0  0  0  0
 31 28  1  0  0  0  0
 32 26  2  0  0  0  0
 32 34  1  0  0  0  0
 33 32  1  0  0  0  0
 34 36  2  0  0  0  0
 35 34  1  0  0  0  0
 36  1  1  0  0  0  0
 36 37  1  0  0  0  0
M  END
>  <REMARK>
 37                     

$$$$
mol21.pdb
 OpenBabel11251619293D

 35 37  0  0  0  0  0  0  0  0999 V2000
   38.2140    8.2890   34.7500 C   0  0  0  0  0  0  0  0  0  0  0  0
   39.2270    8.2940   35.8100 C   0  0  0  0  0  0  0  0  0  0  0  0
   39.4470    9.4220   36.7470 C   0  0  0  0  0  0  0  0  0  0  0  0
   40.4010    9.0520   37.6230 N   0  0  0  0  0  0  0  0  0  0  0  0
   40.7540    9.6220   38.3430 H   0  0  0  0  0  0  0  0  0  0  0  0
   40.8020    7.7940   37.3740 C   0  0  0  0  0  0  0  0  0  0  0  0
   41.6000    7.1280   38.0110 O   0  0  0  0  0  0  0  0  0  0  0  0
   40.0810    7.3160   36.1600 C   0  0  0  0  0  0  0  0  0  0  0  0
   40.3460    6.0450   35.7000 N   0  0  0  0  0  0  0  0  0  0  0  0
   40.4090    5.3420   36.3860 H   0  0  0  0  0  0  0  0  0  0  0  0
   40.5390    5.6270   34.3650 C   0  0  0  0  0  0  0  0  0  0  0  0
   40.5500    4.2500   34.1020 C   0  0  0  0  0  0  0  0  0  0  0  0
   40.4390    3.5810   34.8800 H   0  0  0  0  0  0  0  0  0  0  0  0
   40.7090    3.7760   32.8020 C   0  0  0  0  0  0  0  0  0  0  0  0
   40.7140    2.4250   32.6150 O   0  0  0  0  0  0  0  0  0  0  0  0
   40.8190    2.0720   31.7540 H   0  0  0  0  0  0  0  0  0  0  0  0
   40.8550    4.6530   31.7350 C   0  0  0  0  0  0  0  0  0  0  0  0
   40.9700    4.2940   30.7740 H   0  0  0  0  0  0  0  0  0  0  0  0
   40.8440    6.0240   31.9810 C   0  0  0  0  0  0  0  0  0  0  0  0
   40.9520    6.6870   31.1980 H   0  0  0  0  0  0  0  0  0  0  0  0
   40.6870    6.5060   33.2850 C   0  0  0  0  0  0  0  0  0  0  0  0
   40.6800    7.5240   33.4530 H   0  0  0  0  0  0  0  0  0  0  0  0
   38.8550   10.4860   36.7380 O   0  0  0  0  0  0  0  0  0  0  0  0
   38.0650    9.3950   33.9000 C   0  0  0  0  0  0  0  0  0  0  0  0
   38.6660   10.2250   34.0230 H   0  0  0  0  0  0  0  0  0  0  0  0
   37.0990    9.3730   32.8830 C   0  0  0  0  0  0  0  0  0  0  0  0
   36.9740   10.5200   31.9750 N   0  0  0  0  0  0  0  0  0  0  0  0
   37.6630   11.5220   32.2110 O   0  0  0  0  0  0  0  0  0  0  0  0
   36.1970   10.4120   31.0140 O   0  0  0  0  0  0  0  0  0  0  0  0
   36.2630    8.2640   32.7120 C   0  0  0  0  0  0  0  0  0  0  0  0
   35.5540    8.2570   31.9620 H   0  0  0  0  0  0  0  0  0  0  0  0
   36.3980    7.1700   33.5640 C   0  0  0  0  0  0  0  0  0  0  0  0
   35.7830    6.3490   33.4500 H   0  0  0  0  0  0  0  0  0  0  0  0
   37.3650    7.1830   34.5730 C   0  0  0  0  0  0  0  0  0  0  0  0
   37.4570    6.3670   35.1980 H   0  0  0  0  0  0  0  0  0  0  0  0
  1  2  1  0  0  0  0
  2  8  2  0  0  0  0
  2  3  1  0  0  0  0
  3  4  1  0  0  0  0
  4  5  1  0  0  0  0
  6  4  1  0  0  0  0
  6  7  2  0  0  0  0
  8  6  1  0  0  0  0
  9  8  1  0  0  0  0
  9 10  1  0  0  0  0
 11  9  1  0  0  0  0
 12 11  1  0  0  0  0
 12 13  1  0  0  0  0
 14 12  2  0  0  0  0
 15 14  1  0  0  0  0
 16 15  1  0  0  0  0
 17 19  2  0  0  0  0
 17 14  1  0  0  0  0
 18 17  1  0  0  0  0
 19 21  1  0  0  0  0
 20 19  1  0  0  0  0
 21 22  1  0  0  0  0
 21 11  2  0  0  0  0
 23  3  2  0  0  0  0
 24 25  1  0  0  0  0
 24  1  2  0  0  0  0
 26 24  1  0  0  0  0
 27 28  2  0  0  0  0
 27 26  1  0  0  0  0
 29 27  2  0  0  0  0
 30 26  2  0  0  0  0
 30 32  1  0  0  0  0
 31 30  1  0  0  0  0
 32 34  2  0  0  0  0
 33 32  1  0  0  0  0
 34  1  1  0  0  0  0
 34 35  1  0  0  0  0
M  END
>  <REMARK>
 35                     

$$$$
mol22.pdb
 OpenBabel11251619293D

 33 35  0  0  0  0  0  0  0  0999 V2000
   38.2090    8.2870   34.7430 C   0  0  0  0  0  0  0  0  0  0  0  0
   39.2180    8.2970   35.8020 C   0  0  0  0  0  0  0  0  0  0  0  0
   39.4250    9.4240   36.7310 C   0  0  0  0  0  0  0  0  0  0  0  0
   40.3840    9.0560   37.6030 N   0  0  0  0  0  0  0  0  0  0  0  0
   40.7320    9.6340   38.3440 H   0  0  0  0  0  0  0  0  0  0  0  0
   40.7840    7.7930   37.3600 C   0  0  0  0  0  0  0  0  0  0  0  0
   41.5840    7.1400   38.0050 O   0  0  0  0  0  0  0  0  0  0  0  0
   40.0630    7.3180   36.1490 C   0  0  0  0  0  0  0  0  0  0  0  0
   40.3140    6.0550   35.6720 N   0  0  0  0  0  0  0  0  0  0  0  0
   40.4220    5.3440   36.3890 H   0  0  0  0  0  0  0  0  0  0  0  0
   40.5280    5.6310   34.3560 C   0  0  0  0  0  0  0  0  0  0  0  0
   40.5490    4.2610   34.0830 C   0  0  0  0  0  0  0  0  0  0  0  0
   40.4420    3.5930   34.8630 H   0  0  0  0  0  0  0  0  0  0  0  0
   40.7100    3.7700   32.7900 C   0  0  0  0  0  0  0  0  0  0  0  0
   40.7130    2.4130   32.6410 O   0  0  0  0  0  0  0  0  0  0  0  0
   40.8280    2.1110   31.7250 H   0  0  0  0  0  0  0  0  0  0  0  0
   40.8540    4.6470   31.7350 C   0  0  0  0  0  0  0  0  0  0  0  0
   40.9720    4.2910   30.7740 H   0  0  0  0  0  0  0  0  0  0  0  0
   40.8380    6.0170   31.9800 C   0  0  0  0  0  0  0  0  0  0  0  0
   40.9460    6.6800   31.1970 H   0  0  0  0  0  0  0  0  0  0  0  0
   40.6770    6.4970   33.2800 C   0  0  0  0  0  0  0  0  0  0  0  0
   40.6680    7.5160   33.4460 H   0  0  0  0  0  0  0  0  0  0  0  0
   38.8350   10.4890   36.7220 O   0  0  0  0  0  0  0  0  0  0  0  0
   38.0760    9.3930   33.9110 C   0  0  0  0  0  0  0  0  0  0  0  0
   38.6810   10.2180   34.0460 H   0  0  0  0  0  0  0  0  0  0  0  0
   37.1300    9.3840   32.9020 C   0  0  0  0  0  0  0  0  0  0  0  0
   37.0130   10.1820   32.2590 H   0  0  0  0  0  0  0  0  0  0  0  0
   36.3590    8.2590   32.8040 C   0  0  0  0  0  0  0  0  0  0  0  0
   35.1960    8.2240   31.5850 Cl  0  0  0  0  0  0  0  0  0  0  0  0
   36.4260    7.1480   33.5960 C   0  0  0  0  0  0  0  0  0  0  0  0
   35.8010    6.3380   33.4590 H   0  0  0  0  0  0  0  0  0  0  0  0
   37.3840    7.1780   34.5920 C   0  0  0  0  0  0  0  0  0  0  0  0
   37.4880    6.3720   35.2280 H   0  0  0  0  0  0  0  0  0  0  0  0
  1  2  1  0  0  0  0
  2  8  2  0  0  0  0
  2  3  1  0  0  0  0
  3  4  1  0  0  0  0
  4  5  1  0  0  0  0
  6  4  1  0  0  0  0
  6  7  2  0  0  0  0
  8  6  1  0  0  0  0
  9  8  1  0  0  0  0
  9 10  1  0  0  0  0
 11  9  1  0  0  0  0
 12 11  1  0  0  0  0
 12 13  1  0  0  0  0
 14 12  2  0  0  0  0
 15 14  1  0  0  0  0
 16 15  1  0  0  0  0
 17 19  2  0  0  0  0
 17 14  1  0  0  0  0
 18 17  1  0  0  0  0
 19 21  1  0  0  0  0
 20 19  1  0  0  0  0
 21 22  1  0  0  0  0
 21 11  2  0  0  0  0
 23  3  2  0  0  0  0
 24 25  1  0  0  0  0
 24  1  2  0  0  0  0
 26 24  1  0  0  0  0
 27 26  1  0  0  0  0
 28 26  2  0  0  0  0
 28 30  1  0  0  0  0
 29 28  1  0  0  0  0
 30 32  2  0  0  0  0
 31 30  1  0  0  0  0
 32  1  1  0  0  0  0
 32 33  1  0  0  0  0
M  END
>  <REMARK>
 33                     

$$$$
mol23.pdb
 OpenBabel11251619293D

 37 39  0  0  0  0  0  0  0  0999 V2000
   38.2040    8.2890   34.7600 C   0  0  0  0  0  0  0  0  0  0  0  0
   39.2220    8.3000   35.8170 C   0  0  0  0  0  0  0  0  0  0  0  0
   39.4760    9.4370   36.7340 C   0  0  0  0  0  0  0  0  0  0  0  0
   40.4180    9.0500   37.6170 N   0  0  0  0  0  0  0  0  0  0  0  0
   40.7550    9.6180   38.3770 H   0  0  0  0  0  0  0  0  0  0  0  0
   40.7960    7.7850   37.3760 C   0  0  0  0  0  0  0  0  0  0  0  0
   41.5860    7.1110   38.0150 O   0  0  0  0  0  0  0  0  0  0  0  0
   40.0650    7.3120   36.1670 C   0  0  0  0  0  0  0  0  0  0  0  0
   40.3100    6.0360   35.7090 N   0  0  0  0  0  0  0  0  0  0  0  0
   40.9160    5.5120   36.3470 H   0  0  0  0  0  0  0  0  0  0  0  0
   40.5210    5.6280   34.3720 C   0  0  0  0  0  0  0  0  0  0  0  0
   40.5230    4.2540   34.0940 C   0  0  0  0  0  0  0  0  0  0  0  0
   40.3960    3.5770   34.8630 H   0  0  0  0  0  0  0  0  0  0  0  0
   40.6950    3.7930   32.7910 C   0  0  0  0  0  0  0  0  0  0  0  0
   40.6880    2.4440   32.5870 O   0  0  0  0  0  0  0  0  0  0  0  0
   40.8230    2.2720   31.6410 H   0  0  0  0  0  0  0  0  0  0  0  0
   40.8650    4.6800   31.7350 C   0  0  0  0  0  0  0  0  0  0  0  0
   40.9940    4.3300   30.7730 H   0  0  0  0  0  0  0  0  0  0  0  0
   40.8590    6.0490   31.9940 C   0  0  0  0  0  0  0  0  0  0  0  0
   40.9810    6.7200   31.2190 H   0  0  0  0  0  0  0  0  0  0  0  0
   40.6880    6.5170   33.3030 C   0  0  0  0  0  0  0  0  0  0  0  0
   40.6850    7.5330   33.4830 H   0  0  0  0  0  0  0  0  0  0  0  0
   38.9300   10.5250   36.7090 O   0  0  0  0  0  0  0  0  0  0  0  0
   38.0180    9.3960   33.9250 C   0  0  0  0  0  0  0  0  0  0  0  0
   38.5880   10.2450   34.0650 H   0  0  0  0  0  0  0  0  0  0  0  0
   37.0650    9.3600   32.9010 C   0  0  0  0  0  0  0  0  0  0  0  0
   36.9410   10.1830   32.2910 H   0  0  0  0  0  0  0  0  0  0  0  0
   36.2800    8.2250   32.6940 C   0  0  0  0  0  0  0  0  0  0  0  0
   35.4010    8.3130   31.6510 O   0  0  0  0  0  0  0  0  0  0  0  0
   34.7020    7.1230   31.3040 C   0  0  0  0  0  0  0  0  0  0  0  0
   35.4040    6.3640   31.0290 H   0  0  0  0  0  0  0  0  0  0  0  0
   34.1270    6.7900   32.1420 H   0  0  0  0  0  0  0  0  0  0  0  0
   34.0490    7.3200   30.4790 H   0  0  0  0  0  0  0  0  0  0  0  0
   36.4370    7.1300   33.5400 C   0  0  0  0  0  0  0  0  0  0  0  0
   35.8500    6.2910   33.4110 H   0  0  0  0  0  0  0  0  0  0  0  0
   37.3890    7.1650   34.5650 C   0  0  0  0  0  0  0  0  0  0  0  0
   37.4930    6.3490   35.1880 H   0  0  0  0  0  0  0  0  0  0  0  0
  1  2  1  0  0  0  0
  2  8  2  0  0  0  0
  2  3  1  0  0  0  0
  3  4  1  0  0  0  0
  4  5  1  0  0  0  0
  6  4  1  0  0  0  0
  6  7  2  0  0  0  0
  8  6  1  0  0  0  0
  9  8  1  0  0  0  0
  9 10  1  0  0  0  0
 11  9  1  0  0  0  0
 12 11  1  0  0  0  0
 12 13  1  0  0  0  0
 14 12  2  0  0  0  0
 15 14  1  0  0  0  0
 16 15  1  0  0  0  0
 17 19  2  0  0  0  0
 17 14  1  0  0  0  0
 18 17  1  0  0  0  0
 19 21  1  0  0  0  0
 20 19  1  0  0  0  0
 21 22  1  0  0  0  0
 21 11  2  0  0  0  0
 23  3  2  0  0  0  0
 24 25  1  0  0  0  0
 24  1  2  0  0  0  0
 26 24  1  0  0  0  0
 27 26  1  0  0  0  0
 28 26  2  0  0  0  0
 28 34  1  0  0  0  0
 29 28  1  0  0  0  0
 30 29  1  0  0  0  0
 30 32  1  0  0  0  0
 31 30  1  0  0  0  0
 33 30  1  0  0  0  0
 34 36  2  0  0  0  0
 35 34  1  0  0  0  0
 36  1  1  0  0  0  0
 36 37  1  0  0  0  0
M  END
>  <REMARK>
 37                     

$$$$
mol24.pdb
 OpenBabel11251619293D

 35 37  0  0  0  0  0  0  0  0999 V2000
   38.2030    8.2850   34.7570 C   0  0  0  0  0  0  0  0  0  0  0  0
   39.2190    8.2910   35.8160 C   0  0  0  0  0  0  0  0  0  0  0  0
   39.4680    9.4290   36.7340 C   0  0  0  0  0  0  0  0  0  0  0  0
   40.4250    9.0550   37.6050 N   0  0  0  0  0  0  0  0  0  0  0  0
   40.7630    9.6260   38.3610 H   0  0  0  0  0  0  0  0  0  0  0  0
   40.8060    7.7880   37.3690 C   0  0  0  0  0  0  0  0  0  0  0  0
   41.6050    7.1210   38.0020 O   0  0  0  0  0  0  0  0  0  0  0  0
   40.0660    7.3070   36.1690 C   0  0  0  0  0  0  0  0  0  0  0  0
   40.3130    6.0320   35.7130 N   0  0  0  0  0  0  0  0  0  0  0  0
   40.9350    5.5190   36.3450 H   0  0  0  0  0  0  0  0  0  0  0  0
   40.5220    5.6270   34.3750 C   0  0  0  0  0  0  0  0  0  0  0  0
   40.5140    4.2530   34.0930 C   0  0  0  0  0  0  0  0  0  0  0  0
   40.3790    3.5780   34.8620 H   0  0  0  0  0  0  0  0  0  0  0  0
   40.6860    3.7840   32.7880 C   0  0  0  0  0  0  0  0  0  0  0  0
   40.6810    2.7700   32.5960 H   0  0  0  0  0  0  0  0  0  0  0  0
   40.8640    4.6900   31.7520 C   0  0  0  0  0  0  0  0  0  0  0  0
   41.0280    4.1940   30.4940 O   0  0  0  0  0  0  0  0  0  0  0  0
   40.7330    3.2690   30.4820 H   0  0  0  0  0  0  0  0  0  0  0  0
   40.8760    6.0560   32.0010 C   0  0  0  0  0  0  0  0  0  0  0  0
   41.0090    6.7250   31.2260 H   0  0  0  0  0  0  0  0  0  0  0  0
   40.7060    6.5190   33.3100 C   0  0  0  0  0  0  0  0  0  0  0  0
   40.7160    7.5340   33.4940 H   0  0  0  0  0  0  0  0  0  0  0  0
   38.8990   10.5050   36.7130 O   0  0  0  0  0  0  0  0  0  0  0  0
   38.0370    9.3950   33.9160 C   0  0  0  0  0  0  0  0  0  0  0  0
   38.6200   10.2360   34.0510 H   0  0  0  0  0  0  0  0  0  0  0  0
   37.0780    9.3640   32.8910 C   0  0  0  0  0  0  0  0  0  0  0  0
   36.9360   10.5180   31.9940 N   0  0  0  0  0  0  0  0  0  0  0  0
   36.1010   10.4380   31.0820 O   0  0  0  0  0  0  0  0  0  0  0  0
   37.6720   11.4950   32.1880 O   0  0  0  0  0  0  0  0  0  0  0  0
   36.2690    8.2380   32.7020 C   0  0  0  0  0  0  0  0  0  0  0  0
   35.5680    8.2220   31.9450 H   0  0  0  0  0  0  0  0  0  0  0  0
   36.4190    7.1400   33.5450 C   0  0  0  0  0  0  0  0  0  0  0  0
   35.8230    6.3070   33.4180 H   0  0  0  0  0  0  0  0  0  0  0  0
   37.3760    7.1650   34.5630 C   0  0  0  0  0  0  0  0  0  0  0  0
   37.4770    6.3470   35.1830 H   0  0  0  0  0  0  0  0  0  0  0  0
  1  2  1  0  0  0  0
  2  8  2  0  0  0  0
  2  3  1  0  0  0  0
  3  4  1  0  0  0  0
  4  5  1  0  0  0  0
  6  4  1  0  0  0  0
  6  7  2  0  0  0  0
  8  6  1  0  0  0  0
  9  8  1  0  0  0  0
  9 10  1  0  0  0  0
 11  9  1  0  0  0  0
 12 11  1  0  0  0  0
 12 13  1  0  0  0  0
 14 12  2  0  0  0  0
 15 14  1  0  0  0  0
 16 19  2  0  0  0  0
 16 14  1  0  0  0  0
 17 16  1  0  0  0  0
 18 17  1  0  0  0  0
 19 21  1  0  0  0  0
 20 19  1  0  0  0  0
 21 22  1  0  0  0  0
 21 11  2  0  0  0  0
 23  3  2  0  0  0  0
 24 25  1  0  0  0  0
 24  1  2  0  0  0  0
 26 24  1  0  0  0  0
 27 29  2  0  0  0  0
 27 26  1  0  0  0  0
 28 27  2  0  0  0  0
 30 26  2  0  0  0  0
 30 32  1  0  0  0  0
 31 30  1  0  0  0  0
 32 34  2  0  0  0  0
 33 32  1  0  0  0  0
 34  1  1  0  0  0  0
 34 35  1  0  0  0  0
M  END
>  <REMARK>
 35                    

$$$$
mol25.pdb
 OpenBabel11251619293D

 33 35  0  0  0  0  0  0  0  0999 V2000
   38.2090    8.2950   34.7450 C   0  0  0  0  0  0  0  0  0  0  0  0
   39.2230    8.2950   35.8060 C   0  0  0  0  0  0  0  0  0  0  0  0
   39.4500    9.4240   36.7450 C   0  0  0  0  0  0  0  0  0  0  0  0
   40.3980    9.0490   37.6230 N   0  0  0  0  0  0  0  0  0  0  0  0
   40.7470    9.6150   38.3490 H   0  0  0  0  0  0  0  0  0  0  0  0
   40.8010    7.7930   37.3690 C   0  0  0  0  0  0  0  0  0  0  0  0
   41.6030    7.1280   38.0020 O   0  0  0  0  0  0  0  0  0  0  0  0
   40.0800    7.3170   36.1550 C   0  0  0  0  0  0  0  0  0  0  0  0
   40.3520    6.0460   35.7000 N   0  0  0  0  0  0  0  0  0  0  0  0
   40.4180    5.3470   36.3900 H   0  0  0  0  0  0  0  0  0  0  0  0
   40.5480    5.6190   34.3700 C   0  0  0  0  0  0  0  0  0  0  0  0
   40.5810    4.2370   34.1220 C   0  0  0  0  0  0  0  0  0  0  0  0
   40.4910    3.5780   34.9110 H   0  0  0  0  0  0  0  0  0  0  0  0
   40.7330    3.7400   32.8260 C   0  0  0  0  0  0  0  0  0  0  0  0
   40.7590    2.7220   32.6600 H   0  0  0  0  0  0  0  0  0  0  0  0
   40.8490    4.6230   31.7630 C   0  0  0  0  0  0  0  0  0  0  0  0
   40.9920    4.0990   30.5130 O   0  0  0  0  0  0  0  0  0  0  0  0
   41.0640    3.1330   30.5870 H   0  0  0  0  0  0  0  0  0  0  0  0
   40.8170    5.9940   31.9770 C   0  0  0  0  0  0  0  0  0  0  0  0
   40.9030    6.6460   31.1820 H   0  0  0  0  0  0  0  0  0  0  0  0
   40.6670    6.4870   33.2780 C   0  0  0  0  0  0  0  0  0  0  0  0
   40.6440    7.5070   33.4350 H   0  0  0  0  0  0  0  0  0  0  0  0
   38.8750   10.4970   36.7350 O   0  0  0  0  0  0  0  0  0  0  0  0
   37.9860    9.4410   33.9660 C   0  0  0  0  0  0  0  0  0  0  0  0
   38.5410   10.2930   34.1440 H   0  0  0  0  0  0  0  0  0  0  0  0
   37.0230    9.4450   32.9530 C   0  0  0  0  0  0  0  0  0  0  0  0
   36.8720   10.2940   32.3860 H   0  0  0  0  0  0  0  0  0  0  0  0
   36.2670    8.3010   32.7100 C   0  0  0  0  0  0  0  0  0  0  0  0
   35.0870    8.3030   31.4600 Cl  0  0  0  0  0  0  0  0  0  0  0  0
   36.4620    7.1570   33.4780 C   0  0  0  0  0  0  0  0  0  0  0  0
   35.8990    6.3110   33.2990 H   0  0  0  0  0  0  0  0  0  0  0  0
   37.4240    7.1570   34.4940 C   0  0  0  0  0  0  0  0  0  0  0  0
   37.5590    6.3090   35.0670 H   0  0  0  0  0  0  0  0  0  0  0  0
  1  2  1  0  0  0  0
  2  8  2  0  0  0  0
  2  3  1  0  0  0  0
  3  4  1  0  0  0  0
  4  5  1  0  0  0  0
  6  4  1  0  0  0  0
  6  7  2  0  0  0  0
  8  6  1  0  0  0  0
  9  8  1  0  0  0  0
  9 10  1  0  0  0  0
 11  9  1  0  0  0  0
 12 11  1  0  0  0  0
 12 13  1  0  0  0  0
 14 12  2  0  0  0  0
 15 14  1  0  0  0  0
 16 19  2  0  0  0  0
 16 14  1  0  0  0  0
 17 18  1  0  0  0  0
 17 16  1  0  0  0  0
 19 21  1  0  0  0  0
 20 19  1  0  0  0  0
 21 22  1  0  0  0  0
 21 11  2  0  0  0  0
 23  3  2  0  0  0  0
 24 25  1  0  0  0  0
 24  1  2  0  0  0  0
 26 24  1  0  0  0  0
 27 26  1  0  0  0  0
 28 26  2  0  0  0  0
 28 30  1  0  0  0  0
 29 28  1  0  0  0  0
 30 32  2  0  0  0  0
 31 30  1  0  0  0  0
 32  1  1  0  0  0  0
 32 33  1  0  0  0  0
M  END
>  <REMARK>
 33                     

$$$$
mol26.pdb
 OpenBabel11251619293D

 33 35  0  0  0  0  0  0  0  0999 V2000
   40.6900    6.4890   33.2370 C   0  0  0  0  0  0  0  0  0  0  0  0
   40.6950    7.5110   33.3800 H   0  0  0  0  0  0  0  0  0  0  0  0
   40.8020    5.9750   31.9400 C   0  0  0  0  0  0  0  0  0  0  0  0
   40.8940    6.6150   31.1360 H   0  0  0  0  0  0  0  0  0  0  0  0
   40.7890    4.5980   31.7370 C   0  0  0  0  0  0  0  0  0  0  0  0
   40.9030    4.0930   30.4710 O   0  0  0  0  0  0  0  0  0  0  0  0
   40.8100    3.1270   30.4990 H   0  0  0  0  0  0  0  0  0  0  0  0
   40.6630    3.7340   32.8260 C   0  0  0  0  0  0  0  0  0  0  0  0
   40.6350    2.0210   32.6210 Cl  0  0  0  0  0  0  0  0  0  0  0  0
   40.5540    4.2540   34.1180 C   0  0  0  0  0  0  0  0  0  0  0  0
   40.4600    3.6100   34.9190 H   0  0  0  0  0  0  0  0  0  0  0  0
   40.5710    5.6390   34.3430 C   0  0  0  0  0  0  0  0  0  0  0  0
   40.4320    6.0930   35.6680 N   0  0  0  0  0  0  0  0  0  0  0  0
   40.5630    5.4090   36.3640 H   0  0  0  0  0  0  0  0  0  0  0  0
   40.1390    7.3560   36.1290 C   0  0  0  0  0  0  0  0  0  0  0  0
   40.8210    7.8230   37.3700 C   0  0  0  0  0  0  0  0  0  0  0  0
   40.4070    9.0740   37.6240 N   0  0  0  0  0  0  0  0  0  0  0  0
   40.7930    9.6700   38.3060 H   0  0  0  0  0  0  0  0  0  0  0  0
   39.3850    9.3940   36.8080 C   0  0  0  0  0  0  0  0  0  0  0  0
   38.6350   10.3440   36.9400 O   0  0  0  0  0  0  0  0  0  0  0  0
   39.2690    8.3220   35.7870 C   0  0  0  0  0  0  0  0  0  0  0  0
   38.2690    8.3260   34.7130 C   0  0  0  0  0  0  0  0  0  0  0  0
   38.1510    9.3770   33.7850 C   0  0  0  0  0  0  0  0  0  0  0  0
   39.2670   10.7000   33.7410 Cl  0  0  0  0  0  0  0  0  0  0  0  0
   37.1520    9.3560   32.8060 C   0  0  0  0  0  0  0  0  0  0  0  0
   37.0670   10.1410   32.1420 H   0  0  0  0  0  0  0  0  0  0  0  0
   36.2710    8.2780   32.7240 C   0  0  0  0  0  0  0  0  0  0  0  0
   35.5340    8.2650   32.0010 H   0  0  0  0  0  0  0  0  0  0  0  0
   36.3880    7.2200   33.6190 C   0  0  0  0  0  0  0  0  0  0  0  0
   35.7460    6.4150   33.5520 H   0  0  0  0  0  0  0  0  0  0  0  0
   37.3740    7.2460   34.6100 C   0  0  0  0  0  0  0  0  0  0  0  0
   37.4460    6.4610   35.2760 H   0  0  0  0  0  0  0  0  0  0  0  0
   41.5880    7.1440   38.0310 O   0  0  0  0  0  0  0  0  0  0  0  0
  1  2  1  0  0  0  0
  1 12  2  0  0  0  0
  3  1  1  0  0  0  0
  4  3  1  0  0  0  0
  5  3  2  0  0  0  0
  5  8  1  0  0  0  0
  6  7  1  0  0  0  0
  6  5  1  0  0  0  0
  8 10  2  0  0  0  0
  9  8  1  0  0  0  0
 10 12  1  0  0  0  0
 10 11  1  0  0  0  0
 12 13  1  0  0  0  0
 13 15  1  0  0  0  0
 13 14  1  0  0  0  0
 15 16  1  0  0  0  0
 16 17  1  0  0  0  0
 16 33  2  0  0  0  0
 17 18  1  0  0  0  0
 19 20  2  0  0  0  0
 19 17  1  0  0  0  0
 21 15  2  0  0  0  0
 21 19  1  0  0  0  0
 22 21  1  0  0  0  0
 23 22  2  0  0  0  0
 24 23  1  0  0  0  0
 25 23  1  0  0  0  0
 26 25  1  0  0  0  0
 27 25  2  0  0  0  0
 27 29  1  0  0  0  0
 28 27  1  0  0  0  0
 29 31  2  0  0  0  0
 30 29  1  0  0  0  0
 31 22  1  0  0  0  0
 31 32  1  0  0  0  0
M  END
>  <REMARK>
 33                     

$$$$
mol27.pdb
 OpenBabel11251619293D

 37 39  0  0  0  0  0  0  0  0999 V2000
   38.2610    8.3090   34.7180 C   0  0  0  0  0  0  0  0  0  0  0  0
   39.2650    8.3170   35.7870 C   0  0  0  0  0  0  0  0  0  0  0  0
   39.4040    9.4100   36.7820 C   0  0  0  0  0  0  0  0  0  0  0  0
   40.4020    9.0710   37.6220 N   0  0  0  0  0  0  0  0  0  0  0  0
   40.7800    9.6590   38.3150 H   0  0  0  0  0  0  0  0  0  0  0  0
   40.8060    7.8130   37.3760 C   0  0  0  0  0  0  0  0  0  0  0  0
   41.5600    7.1300   38.0470 O   0  0  0  0  0  0  0  0  0  0  0  0
   40.1280    7.3460   36.1330 C   0  0  0  0  0  0  0  0  0  0  0  0
   40.4140    6.0820   35.6740 N   0  0  0  0  0  0  0  0  0  0  0  0
   40.5280    5.3930   36.3680 H   0  0  0  0  0  0  0  0  0  0  0  0
   40.5660    5.6400   34.3450 C   0  0  0  0  0  0  0  0  0  0  0  0
   40.5520    4.2570   34.1050 C   0  0  0  0  0  0  0  0  0  0  0  0
   40.4560    3.6050   34.8990 H   0  0  0  0  0  0  0  0  0  0  0  0
   40.6660    3.7500   32.8080 C   0  0  0  0  0  0  0  0  0  0  0  0
   40.6360    2.0380   32.5860 Cl  0  0  0  0  0  0  0  0  0  0  0  0
   40.7990    4.6240   31.7290 C   0  0  0  0  0  0  0  0  0  0  0  0
   40.9190    4.1320   30.4580 O   0  0  0  0  0  0  0  0  0  0  0  0
   40.9300    3.1630   30.4870 H   0  0  0  0  0  0  0  0  0  0  0  0
   40.8120    5.9980   31.9460 C   0  0  0  0  0  0  0  0  0  0  0  0
   40.9100    6.6460   31.1490 H   0  0  0  0  0  0  0  0  0  0  0  0
   40.6920    6.4990   33.2470 C   0  0  0  0  0  0  0  0  0  0  0  0
   40.6960    7.5200   33.4000 H   0  0  0  0  0  0  0  0  0  0  0  0
   38.6960   10.3960   36.8880 O   0  0  0  0  0  0  0  0  0  0  0  0
   38.1460    9.3740   33.8020 C   0  0  0  0  0  0  0  0  0  0  0  0
   39.0880   10.3700   33.8790 O   0  0  0  0  0  0  0  0  0  0  0  0
   38.6400   11.6650   33.4830 C   0  0  0  0  0  0  0  0  0  0  0  0
   38.3140   11.6340   32.4640 H   0  0  0  0  0  0  0  0  0  0  0  0
   37.8260   11.9680   34.1090 H   0  0  0  0  0  0  0  0  0  0  0  0
   39.4430   12.3650   33.5790 H   0  0  0  0  0  0  0  0  0  0  0  0
   37.1550    9.3380   32.8130 C   0  0  0  0  0  0  0  0  0  0  0  0
   37.0750   10.1140   32.1380 H   0  0  0  0  0  0  0  0  0  0  0  0
   36.2740    8.2570   32.7360 C   0  0  0  0  0  0  0  0  0  0  0  0
   35.5410    8.2410   32.0090 H   0  0  0  0  0  0  0  0  0  0  0  0
   36.3820    7.2030   33.6360 C   0  0  0  0  0  0  0  0  0  0  0  0
   35.7340    6.4020   33.5740 H   0  0  0  0  0  0  0  0  0  0  0  0
   37.3670    7.2290   34.6220 C   0  0  0  0  0  0  0  0  0  0  0  0
   37.4410    6.4460   35.2900 H   0  0  0  0  0  0  0  0  0  0  0  0
  1  2  1  0  0  0  0
  2  8  2  0  0  0  0
  2  3  1  0  0  0  0
  3 23  2  0  0  0  0
  3  4  1  0  0  0  0
  4  5  1  0  0  0  0
  6  4  1  0  0  0  0
  6  7  2  0  0  0  0
  8  6  1  0  0  0  0
  9  8  1  0  0  0  0
  9 10  1  0  0  0  0
 11  9  1  0  0  0  0
 12 11  1  0  0  0  0
 12 13  1  0  0  0  0
 14 12  2  0  0  0  0
 15 14  1  0  0  0  0
 16 19  2  0  0  0  0
 16 14  1  0  0  0  0
 17 18  1  0  0  0  0
 17 16  1  0  0  0  0
 19 21  1  0  0  0  0
 20 19  1  0  0  0  0
 21 22  1  0  0  0  0
 21 11  2  0  0  0  0
 24 25  1  0  0  0  0
 24  1  2  0  0  0  0
 26 29  1  0  0  0  0
 26 25  1  0  0  0  0
 26 28  1  0  0  0  0
 27 26  1  0  0  0  0
 30 24  1  0  0  0  0
 31 30  1  0  0  0  0
 32 30  2  0  0  0  0
 32 34  1  0  0  0  0
 33 32  1  0  0  0  0
 34 36  2  0  0  0  0
 35 34  1  0  0  0  0
 36  1  1  0  0  0  0
 36 37  1  0  0  0  0
M  END
>  <REMARK>
 37                    

$$$$
mol28.pdb
 OpenBabel11251619293D

 35 37  0  0  0  0  0  0  0  0999 V2000
   38.2850    8.3220   34.7090 C   0  0  0  0  0  0  0  0  0  0  0  0
   39.2710    8.3070   35.7990 C   0  0  0  0  0  0  0  0  0  0  0  0
   39.3870    9.3890   36.8050 C   0  0  0  0  0  0  0  0  0  0  0  0
   40.3610    9.0490   37.6700 N   0  0  0  0  0  0  0  0  0  0  0  0
   40.6920    9.6220   38.3990 H   0  0  0  0  0  0  0  0  0  0  0  0
   40.8150    7.8150   37.3940 C   0  0  0  0  0  0  0  0  0  0  0  0
   41.6060    7.1510   38.0400 O   0  0  0  0  0  0  0  0  0  0  0  0
   40.1450    7.3450   36.1450 C   0  0  0  0  0  0  0  0  0  0  0  0
   40.4560    6.0910   35.6760 N   0  0  0  0  0  0  0  0  0  0  0  0
   40.6160    5.4090   36.3680 H   0  0  0  0  0  0  0  0  0  0  0  0
   40.5780    5.6440   34.3460 C   0  0  0  0  0  0  0  0  0  0  0  0
   40.5360    4.2630   34.1100 C   0  0  0  0  0  0  0  0  0  0  0  0
   40.4390    3.6140   34.9060 H   0  0  0  0  0  0  0  0  0  0  0  0
   40.6240    3.7520   32.8120 C   0  0  0  0  0  0  0  0  0  0  0  0
   40.5640    2.0420   32.5930 Cl  0  0  0  0  0  0  0  0  0  0  0  0
   40.7580    4.6220   31.7300 C   0  0  0  0  0  0  0  0  0  0  0  0
   40.8470    4.1270   30.4590 O   0  0  0  0  0  0  0  0  0  0  0  0
   40.7990    3.1580   30.4840 H   0  0  0  0  0  0  0  0  0  0  0  0
   40.8050    5.9970   31.9450 C   0  0  0  0  0  0  0  0  0  0  0  0
   40.9050    6.6430   31.1460 H   0  0  0  0  0  0  0  0  0  0  0  0
   40.7160    6.5010   33.2480 C   0  0  0  0  0  0  0  0  0  0  0  0
   40.7530    7.5210   33.4010 H   0  0  0  0  0  0  0  0  0  0  0  0
   38.6800   10.3780   36.8530 O   0  0  0  0  0  0  0  0  0  0  0  0
   38.1360    9.3720   33.7810 C   0  0  0  0  0  0  0  0  0  0  0  0
   39.0660   10.5010   33.7450 N   0  0  0  0  0  0  0  0  0  0  0  0
   40.2650   10.2610   33.9550 O   0  0  0  0  0  0  0  0  0  0  0  0
   38.6090   11.6110   33.4380 O   0  0  0  0  0  0  0  0  0  0  0  0
   37.1340    9.3430   32.7950 C   0  0  0  0  0  0  0  0  0  0  0  0
   37.0410   10.1250   32.1280 H   0  0  0  0  0  0  0  0  0  0  0  0
   36.2670    8.2560   32.7210 C   0  0  0  0  0  0  0  0  0  0  0  0
   35.5300    8.2290   31.9990 H   0  0  0  0  0  0  0  0  0  0  0  0
   36.3990    7.2050   33.6250 C   0  0  0  0  0  0  0  0  0  0  0  0
   35.7620    6.3950   33.5670 H   0  0  0  0  0  0  0  0  0  0  0  0
   37.3900    7.2400   34.6110 C   0  0  0  0  0  0  0  0  0  0  0  0
   37.4670    6.4580   35.2800 H   0  0  0  0  0  0  0  0  0  0  0  0
  1  2  1  0  0  0  0
  2  8  2  0  0  0  0
  2  3  1  0  0  0  0
  3 23  2  0  0  0  0
  3  4  1  0  0  0  0
  4  5  1  0  0  0  0
  6  4  1  0  0  0  0
  6  7  2  0  0  0  0
  8  6  1  0  0  0  0
  9  8  1  0  0  0  0
  9 10  1  0  0  0  0
 11  9  1  0  0  0  0
 12 11  1  0  0  0  0
 12 13  1  0  0  0  0
 14 12  2  0  0  0  0
 15 14  1  0  0  0  0
 16 19  2  0  0  0  0
 16 14  1  0  0  0  0
 17 18  1  0  0  0  0
 17 16  1  0  0  0  0
 19 21  1  0  0  0  0
 20 19  1  0  0  0  0
 21 22  1  0  0  0  0
 21 11  2  0  0  0  0
 24  1  2  0  0  0  0
 25 24  1  0  0  0  0
 25 26  2  0  0  0  0
 27 25  2  0  0  0  0
 28 24  1  0  0  0  0
 29 28  1  0  0  0  0
 30 28  2  0  0  0  0
 30 32  1  0  0  0  0
 31 30  1  0  0  0  0
 32 34  2  0  0  0  0
 33 32  1  0  0  0  0
 34  1  1  0  0  0  0
 34 35  1  0  0  0  0
M  END
>  <REMARK>
 35                     

$$$$
mol29.pdb
 OpenBabel11251619293D

 33 35  0  0  0  0  0  0  0  0999 V2000
   40.6880    6.5180   33.2790 C   0  0  0  0  0  0  0  0  0  0  0  0
   40.6990    7.5360   33.4510 H   0  0  0  0  0  0  0  0  0  0  0  0
   40.8090    6.0400   31.9680 C   0  0  0  0  0  0  0  0  0  0  0  0
   40.9090    6.7020   31.1830 H   0  0  0  0  0  0  0  0  0  0  0  0
   40.7940    4.6690   31.7280 C   0  0  0  0  0  0  0  0  0  0  0  0
   40.9110    4.2000   30.4490 O   0  0  0  0  0  0  0  0  0  0  0  0
   40.8830    3.2300   30.4560 H   0  0  0  0  0  0  0  0  0  0  0  0
   40.6620    3.7770   32.7930 C   0  0  0  0  0  0  0  0  0  0  0  0
   40.6340    2.0710   32.5410 Cl  0  0  0  0  0  0  0  0  0  0  0  0
   40.5420    4.2620   34.0980 C   0  0  0  0  0  0  0  0  0  0  0  0
   40.4440    3.5960   34.8800 H   0  0  0  0  0  0  0  0  0  0  0  0
   40.5520    5.6390   34.3610 C   0  0  0  0  0  0  0  0  0  0  0  0
   40.3880    6.0610   35.6970 N   0  0  0  0  0  0  0  0  0  0  0  0
   41.0130    5.5540   36.3320 H   0  0  0  0  0  0  0  0  0  0  0  0
   40.0980    7.3240   36.1630 C   0  0  0  0  0  0  0  0  0  0  0  0
   40.7980    7.8010   37.3900 C   0  0  0  0  0  0  0  0  0  0  0  0
   40.3700    9.0490   37.6490 N   0  0  0  0  0  0  0  0  0  0  0  0
   40.6740    9.6120   38.4260 H   0  0  0  0  0  0  0  0  0  0  0  0
   39.4280    9.4180   36.7600 C   0  0  0  0  0  0  0  0  0  0  0  0
   38.8370   10.4810   36.7430 O   0  0  0  0  0  0  0  0  0  0  0  0
   39.2330    8.2920   35.8150 C   0  0  0  0  0  0  0  0  0  0  0  0
   38.2270    8.2770   34.7480 C   0  0  0  0  0  0  0  0  0  0  0  0
   38.0960    9.3670   33.8770 C   0  0  0  0  0  0  0  0  0  0  0  0
   38.7070   10.1910   33.9880 H   0  0  0  0  0  0  0  0  0  0  0  0
   37.1410    9.3420   32.8590 C   0  0  0  0  0  0  0  0  0  0  0  0
   37.0100   10.6750   31.7790 Cl  0  0  0  0  0  0  0  0  0  0  0  0
   36.2980    8.2440   32.7040 C   0  0  0  0  0  0  0  0  0  0  0  0
   35.5930    8.2330   31.9500 H   0  0  0  0  0  0  0  0  0  0  0  0
   36.4110    7.1600   33.5720 C   0  0  0  0  0  0  0  0  0  0  0  0
   35.7870    6.3450   33.4650 H   0  0  0  0  0  0  0  0  0  0  0  0
   37.3700    7.1770   34.5870 C   0  0  0  0  0  0  0  0  0  0  0  0
   37.4500    6.3710   35.2270 H   0  0  0  0  0  0  0  0  0  0  0  0
   41.6060    7.1450   38.0230 O   0  0  0  0  0  0  0  0  0  0  0  0
  1  2  1  0  0  0  0
  1 12  2  0  0  0  0
  3  1  1  0  0  0  0
  4  3  1  0  0  0  0
  5  3  2  0  0  0  0
  5  8  1  0  0  0  0
  6  7  1  0  0  0  0
  6  5  1  0  0  0  0
  8 10  2  0  0  0  0
  9  8  1  0  0  0  0
 10 12  1  0  0  0  0
 10 11  1  0  0  0  0
 12 13  1  0  0  0  0
 13 15  1  0  0  0  0
 13 14  1  0  0  0  0
 15 16  1  0  0  0  0
 16 17  1  0  0  0  0
 16 33  2  0  0  0  0
 17 18  1  0  0  0  0
 19 17  1  0  0  0  0
 20 19  2  0  0  0  0
 21 15  2  0  0  0  0
 21 19  1  0  0  0  0
 22 21  1  0  0  0  0
 23 24  1  0  0  0  0
 23 22  2  0  0  0  0
 25 23  1  0  0  0  0
 26 25  1  0  0  0  0
 27 25  2  0  0  0  0
 27 29  1  0  0  0  0
 28 27  1  0  0  0  0
 29 31  2  0  0  0  0
 30 29  1  0  0  0  0
 31 22  1  0  0  0  0
 31 32  1  0  0  0  0
M  END
>  <REMARK>
 33                     

$$$$
mol30.pdb
 OpenBabel11251619293D

 35 37  0  0  0  0  0  0  0  0999 V2000
   38.2200    8.2740   34.7510 C   0  0  0  0  0  0  0  0  0  0  0  0
   39.2330    8.2860   35.8230 C   0  0  0  0  0  0  0  0  0  0  0  0
   39.4300    9.4110   36.7720 C   0  0  0  0  0  0  0  0  0  0  0  0
   40.3780    9.0440   37.6560 N   0  0  0  0  0  0  0  0  0  0  0  0
   40.7090    9.6100   38.3910 H   0  0  0  0  0  0  0  0  0  0  0  0
   40.8080    7.7990   37.3950 C   0  0  0  0  0  0  0  0  0  0  0  0
   41.6220    7.1450   38.0230 O   0  0  0  0  0  0  0  0  0  0  0  0
   40.1040    7.3190   36.1700 C   0  0  0  0  0  0  0  0  0  0  0  0
   40.3980    6.0560   35.7020 N   0  0  0  0  0  0  0  0  0  0  0  0
   40.5110    5.3590   36.3880 H   0  0  0  0  0  0  0  0  0  0  0  0
   40.5570    5.6360   34.3650 C   0  0  0  0  0  0  0  0  0  0  0  0
   40.5510    4.2600   34.1020 C   0  0  0  0  0  0  0  0  0  0  0  0
   40.4600    3.5940   34.8850 H   0  0  0  0  0  0  0  0  0  0  0  0
   40.6670    3.7760   32.7960 C   0  0  0  0  0  0  0  0  0  0  0  0
   40.6450    2.0690   32.5430 Cl  0  0  0  0  0  0  0  0  0  0  0  0
   40.7920    4.6690   31.7310 C   0  0  0  0  0  0  0  0  0  0  0  0
   40.9040    4.2010   30.4510 O   0  0  0  0  0  0  0  0  0  0  0  0
   40.8810    3.2310   30.4570 H   0  0  0  0  0  0  0  0  0  0  0  0
   40.8030    6.0390   31.9720 C   0  0  0  0  0  0  0  0  0  0  0  0
   40.8980    6.7020   31.1870 H   0  0  0  0  0  0  0  0  0  0  0  0
   40.6850    6.5160   33.2830 C   0  0  0  0  0  0  0  0  0  0  0  0
   40.6920    7.5340   33.4550 H   0  0  0  0  0  0  0  0  0  0  0  0
   38.8350   10.4700   36.7560 O   0  0  0  0  0  0  0  0  0  0  0  0
   38.0730    9.3810   33.8560 C   0  0  0  0  0  0  0  0  0  0  0  0
   38.6760   10.2080   33.9850 H   0  0  0  0  0  0  0  0  0  0  0  0
   37.1210    9.3820   32.7910 C   0  0  0  0  0  0  0  0  0  0  0  0
   36.9010   10.7010   31.9390 N   0  0  0  0  0  0  0  0  0  0  0  0
   36.5290   10.6590   30.7250 O   0  0  0  0  0  0  0  0  0  0  0  0
   37.0310   11.7480   32.5600 O   0  0  0  0  0  0  0  0  0  0  0  0
   36.2890    8.2560   32.6890 C   0  0  0  0  0  0  0  0  0  0  0  0
   35.5720    8.2250   31.9470 H   0  0  0  0  0  0  0  0  0  0  0  0
   36.4100    7.1560   33.5830 C   0  0  0  0  0  0  0  0  0  0  0  0
   35.7840    6.3420   33.4800 H   0  0  0  0  0  0  0  0  0  0  0  0
   37.3710    7.1680   34.6020 C   0  0  0  0  0  0  0  0  0  0  0  0
   37.4540    6.3630   35.2430 H   0  0  0  0  0  0  0  0  0  0  0  0
  1  2  1  0  0  0  0
  2  8  2  0  0  0  0
  2  3  1  0  0  0  0
  3  4  1  0  0  0  0
  4  5  1  0  0  0  0
  6  4  1  0  0  0  0
  6  7  2  0  0  0  0
  8  6  1  0  0  0  0
  9  8  1  0  0  0  0
  9 10  1  0  0  0  0
 11  9  1  0  0  0  0
 12 11  1  0  0  0  0
 12 13  1  0  0  0  0
 14 12  2  0  0  0  0
 15 14  1  0  0  0  0
 16 19  2  0  0  0  0
 16 14  1  0  0  0  0
 17 18  1  0  0  0  0
 17 16  1  0  0  0  0
 19 21  1  0  0  0  0
 20 19  1  0  0  0  0
 21 22  1  0  0  0  0
 21 11  2  0  0  0  0
 23  3  2  0  0  0  0
 24 25  1  0  0  0  0
 24  1  2  0  0  0  0
 26 24  1  0  0  0  0
 27 29  2  0  0  0  0
 27 26  1  0  0  0  0
 28 27  2  0  0  0  0
 30 26  2  0  0  0  0
 30 32  1  0  0  0  0
 31 30  1  0  0  0  0
 32 34  2  0  0  0  0
 33 32  1  0  0  0  0
 34  1  1  0  0  0  0
 34 35  1  0  0  0  0
M  END
>  <REMARK>
 35                     

$$$$
mol31.pdb
 OpenBabel11251619293D

 33 35  0  0  0  0  0  0  0  0999 V2000
   40.6740    6.5130   33.2890 C   0  0  0  0  0  0  0  0  0  0  0  0
   40.6700    7.5300   33.4620 H   0  0  0  0  0  0  0  0  0  0  0  0
   40.8100    6.0390   31.9790 C   0  0  0  0  0  0  0  0  0  0  0  0
   40.9040    6.7040   31.1950 H   0  0  0  0  0  0  0  0  0  0  0  0
   40.8180    4.6690   31.7360 C   0  0  0  0  0  0  0  0  0  0  0  0
   40.9510    4.2030   30.4570 O   0  0  0  0  0  0  0  0  0  0  0  0
   40.9370    3.2330   30.4620 H   0  0  0  0  0  0  0  0  0  0  0  0
   40.6920    3.7740   32.7980 C   0  0  0  0  0  0  0  0  0  0  0  0
   40.6940    2.0670   32.5430 Cl  0  0  0  0  0  0  0  0  0  0  0  0
   40.5540    4.2540   34.1040 C   0  0  0  0  0  0  0  0  0  0  0  0
   40.4590    3.5850   34.8840 H   0  0  0  0  0  0  0  0  0  0  0  0
   40.5430    5.6310   34.3690 C   0  0  0  0  0  0  0  0  0  0  0  0
   40.3600    6.0480   35.7050 N   0  0  0  0  0  0  0  0  0  0  0  0
   40.9800    5.5400   36.3430 H   0  0  0  0  0  0  0  0  0  0  0  0
   40.0820    7.3150   36.1670 C   0  0  0  0  0  0  0  0  0  0  0  0
   40.7970    7.7950   37.3840 C   0  0  0  0  0  0  0  0  0  0  0  0
   40.3840    9.0480   37.6380 N   0  0  0  0  0  0  0  0  0  0  0  0
   40.7070    9.6160   38.4030 H   0  0  0  0  0  0  0  0  0  0  0  0
   39.4440    9.4240   36.7490 C   0  0  0  0  0  0  0  0  0  0  0  0
   38.8790   10.5010   36.7210 O   0  0  0  0  0  0  0  0  0  0  0  0
   39.2230    8.2900   35.8180 C   0  0  0  0  0  0  0  0  0  0  0  0
   38.2150    8.2790   34.7520 C   0  0  0  0  0  0  0  0  0  0  0  0
   38.0520    9.3890   33.9100 C   0  0  0  0  0  0  0  0  0  0  0  0
   38.6410   10.2250   34.0480 H   0  0  0  0  0  0  0  0  0  0  0  0
   37.1000    9.3740   32.8860 C   0  0  0  0  0  0  0  0  0  0  0  0
   36.9940   10.1930   32.2670 H   0  0  0  0  0  0  0  0  0  0  0  0
   36.2950    8.2530   32.7030 C   0  0  0  0  0  0  0  0  0  0  0  0
   35.1280    8.2330   31.4390 Cl  0  0  0  0  0  0  0  0  0  0  0  0
   36.4310    7.1480   33.5380 C   0  0  0  0  0  0  0  0  0  0  0  0
   35.8300    6.3200   33.4030 H   0  0  0  0  0  0  0  0  0  0  0  0
   37.3850    7.1630   34.5600 C   0  0  0  0  0  0  0  0  0  0  0  0
   37.4800    6.3440   35.1810 H   0  0  0  0  0  0  0  0  0  0  0  0
   41.6080    7.1360   38.0110 O   0  0  0  0  0  0  0  0  0  0  0  0
  1  2  1  0  0  0  0
  1 12  2  0  0  0  0
  3  1  1  0  0  0  0
  4  3  1  0  0  0  0
  5  3  2  0  0  0  0
  5  8  1  0  0  0  0
  6  7  1  0  0  0  0
  6  5  1  0  0  0  0
  8 10  2  0  0  0  0
  9  8  1  0  0  0  0
 10 12  1  0  0  0  0
 10 11  1  0  0  0  0
 12 13  1  0  0  0  0
 13 15  1  0  0  0  0
 13 14  1  0  0  0  0
 15 16  1  0  0  0  0
 16 17  1  0  0  0  0
 16 33  2  0  0  0  0
 17 18  1  0  0  0  0
 19 17  1  0  0  0  0
 20 19  2  0  0  0  0
 21 15  2  0  0  0  0
 21 19  1  0  0  0  0
 22 21  1  0  0  0  0
 23 24  1  0  0  0  0
 23 22  2  0  0  0  0
 25 23  1  0  0  0  0
 26 25  1  0  0  0  0
 27 25  2  0  0  0  0
 27 29  1  0  0  0  0
 28 27  1  0  0  0  0
 29 31  2  0  0  0  0
 30 29  1  0  0  0  0
 31 22  1  0  0  0  0
 31 32  1  0  0  0  0
M  END
>  <REMARK>
 33                     

$$$$
mol32.pdb
 OpenBabel11251619293D

 33 35  0  0  0  0  0  0  0  0999 V2000
   40.6480    6.5080   33.2740 C   0  0  0  0  0  0  0  0  0  0  0  0
   40.6390    7.5280   33.4320 H   0  0  0  0  0  0  0  0  0  0  0  0
   40.7480    6.0110   31.9720 C   0  0  0  0  0  0  0  0  0  0  0  0
   40.8530    7.1250   30.6570 Cl  0  0  0  0  0  0  0  0  0  0  0  0
   40.7640    4.6370   31.7340 C   0  0  0  0  0  0  0  0  0  0  0  0
   40.8620    4.1470   30.4570 O   0  0  0  0  0  0  0  0  0  0  0  0
   40.8590    3.1730   30.5100 H   0  0  0  0  0  0  0  0  0  0  0  0
   40.6790    3.7580   32.8120 C   0  0  0  0  0  0  0  0  0  0  0  0
   40.6900    2.0480   32.5840 Cl  0  0  0  0  0  0  0  0  0  0  0  0
   40.5770    4.2560   34.1160 C   0  0  0  0  0  0  0  0  0  0  0  0
   40.5130    3.5970   34.9070 H   0  0  0  0  0  0  0  0  0  0  0  0
   40.5600    5.6380   34.3660 C   0  0  0  0  0  0  0  0  0  0  0  0
   40.4000    6.0660   35.7000 N   0  0  0  0  0  0  0  0  0  0  0  0
   40.5200    5.3730   36.3890 H   0  0  0  0  0  0  0  0  0  0  0  0
   40.0980    7.3260   36.1660 C   0  0  0  0  0  0  0  0  0  0  0  0
   40.8000    7.8050   37.3900 C   0  0  0  0  0  0  0  0  0  0  0  0
   40.3700    9.0490   37.6550 N   0  0  0  0  0  0  0  0  0  0  0  0
   40.6980    9.6110   38.3930 H   0  0  0  0  0  0  0  0  0  0  0  0
   39.4260    9.4190   36.7680 C   0  0  0  0  0  0  0  0  0  0  0  0
   38.8420   10.4870   36.7570 O   0  0  0  0  0  0  0  0  0  0  0  0
   39.2270    8.2930   35.8200 C   0  0  0  0  0  0  0  0  0  0  0  0
   38.2260    8.2820   34.7490 C   0  0  0  0  0  0  0  0  0  0  0  0
   38.0380    9.4090   33.9360 C   0  0  0  0  0  0  0  0  0  0  0  0
   38.6030   10.2570   34.1010 H   0  0  0  0  0  0  0  0  0  0  0  0
   37.0950    9.3970   32.9050 C   0  0  0  0  0  0  0  0  0  0  0  0
   36.9720   10.2310   32.3100 H   0  0  0  0  0  0  0  0  0  0  0  0
   36.3210    8.2610   32.6790 C   0  0  0  0  0  0  0  0  0  0  0  0
   35.6280    8.2510   31.9140 H   0  0  0  0  0  0  0  0  0  0  0  0
   36.4840    7.1390   33.4870 C   0  0  0  0  0  0  0  0  0  0  0  0
   35.9090    6.2980   33.3240 H   0  0  0  0  0  0  0  0  0  0  0  0
   37.4260    7.1510   34.5190 C   0  0  0  0  0  0  0  0  0  0  0  0
   37.5350    6.3190   35.1190 H   0  0  0  0  0  0  0  0  0  0  0  0
   41.6170    7.1510   38.0140 O   0  0  0  0  0  0  0  0  0  0  0  0
  1  2  1  0  0  0  0
  1 12  2  0  0  0  0
  3  1  1  0  0  0  0
  4  3  1  0  0  0  0
  5  3  2  0  0  0  0
  5  8  1  0  0  0  0
  6  7  1  0  0  0  0
  6  5  1  0  0  0  0
  8 10  2  0  0  0  0
  9  8  1  0  0  0  0
 10 12  1  0  0  0  0
 10 11  1  0  0  0  0
 12 13  1  0  0  0  0
 13 15  1  0  0  0  0
 13 14  1  0  0  0  0
 15 16  1  0  0  0  0
 16 17  1  0  0  0  0
 16 33  2  0  0  0  0
 17 18  1  0  0  0  0
 19 17  1  0  0  0  0
 20 19  2  0  0  0  0
 21 15  2  0  0  0  0
 21 19  1  0  0  0  0
 22 21  1  0  0  0  0
 23 24  1  0  0  0  0
 23 22  2  0  0  0  0
 25 23  1  0  0  0  0
 26 25  1  0  0  0  0
 27 25  2  0  0  0  0
 27 29  1  0  0  0  0
 28 27  1  0  0  0  0
 29 31  2  0  0  0  0
 30 29  1  0  0  0  0
 31 22  1  0  0  0  0
 31 32  1  0  0  0  0
M  END
>  <REMARK>
 33                     

$$$$
mol33.pdb
 OpenBabel11251619293D

 33 35  0  0  0  0  0  0  0  0999 V2000
   40.6570    6.5160   33.2770 C   0  0  0  0  0  0  0  0  0  0  0  0
   40.6560    7.5360   33.4360 H   0  0  0  0  0  0  0  0  0  0  0  0
   40.7570    6.0180   31.9740 C   0  0  0  0  0  0  0  0  0  0  0  0
   40.8770    7.1320   30.6610 Cl  0  0  0  0  0  0  0  0  0  0  0  0
   40.7620    4.6430   31.7360 C   0  0  0  0  0  0  0  0  0  0  0  0
   40.8590    4.1540   30.4600 O   0  0  0  0  0  0  0  0  0  0  0  0
   40.7640    3.1340   30.5220 H   0  0  0  0  0  0  0  0  0  0  0  0
   40.6670    3.7650   32.8140 C   0  0  0  0  0  0  0  0  0  0  0  0
   40.6630    2.0550   32.5850 Cl  0  0  0  0  0  0  0  0  0  0  0  0
   40.5640    4.2640   34.1170 C   0  0  0  0  0  0  0  0  0  0  0  0
   40.4910    3.6050   34.9080 H   0  0  0  0  0  0  0  0  0  0  0  0
   40.5580    5.6450   34.3680 C   0  0  0  0  0  0  0  0  0  0  0  0
   40.3980    6.0700   35.7020 N   0  0  0  0  0  0  0  0  0  0  0  0
   40.5090    5.3740   36.3900 H   0  0  0  0  0  0  0  0  0  0  0  0
   40.1060    7.3370   36.1690 C   0  0  0  0  0  0  0  0  0  0  0  0
   40.8090    7.8090   37.3940 C   0  0  0  0  0  0  0  0  0  0  0  0
   40.3890    9.0540   37.6590 N   0  0  0  0  0  0  0  0  0  0  0  0
   40.7240    9.6150   38.3950 H   0  0  0  0  0  0  0  0  0  0  0  0
   39.4450    9.4290   36.7770 C   0  0  0  0  0  0  0  0  0  0  0  0
   38.8670   10.4980   36.8000 O   0  0  0  0  0  0  0  0  0  0  0  0
   39.2340    8.2880   35.8310 C   0  0  0  0  0  0  0  0  0  0  0  0
   38.2230    8.2530   34.7610 C   0  0  0  0  0  0  0  0  0  0  0  0
   37.9860    9.3200   33.9100 C   0  0  0  0  0  0  0  0  0  0  0  0
   38.9070   10.7280   34.0720 Cl  0  0  0  0  0  0  0  0  0  0  0  0
   37.0820    9.3980   32.8660 C   0  0  0  0  0  0  0  0  0  0  0  0
   36.9880   10.2460   32.2860 H   0  0  0  0  0  0  0  0  0  0  0  0
   36.3140    8.2740   32.6480 C   0  0  0  0  0  0  0  0  0  0  0  0
   35.6190    8.2520   31.8850 H   0  0  0  0  0  0  0  0  0  0  0  0
   36.4920    7.1720   33.4730 C   0  0  0  0  0  0  0  0  0  0  0  0
   35.9120    6.3350   33.3080 H   0  0  0  0  0  0  0  0  0  0  0  0
   37.4210    7.1440   34.5170 C   0  0  0  0  0  0  0  0  0  0  0  0
   37.5110    6.3010   35.1060 H   0  0  0  0  0  0  0  0  0  0  0  0
   41.6160    7.1470   38.0210 O   0  0  0  0  0  0  0  0  0  0  0  0
  1  2  1  0  0  0  0
  1 12  2  0  0  0  0
  3  1  1  0  0  0  0
  4  3  1  0  0  0  0
  5  3  2  0  0  0  0
  5  8  1  0  0  0  0
  6  7  1  0  0  0  0
  6  5  1  0  0  0  0
  8 10  2  0  0  0  0
  9  8  1  0  0  0  0
 10 12  1  0  0  0  0
 10 11  1  0  0  0  0
 12 13  1  0  0  0  0
 13 15  1  0  0  0  0
 13 14  1  0  0  0  0
 15 16  1  0  0  0  0
 16 17  1  0  0  0  0
 16 33  2  0  0  0  0
 17 18  1  0  0  0  0
 19 20  2  0  0  0  0
 19 17  1  0  0  0  0
 21 15  2  0  0  0  0
 21 19  1  0  0  0  0
 22 21  1  0  0  0  0
 23 24  1  0  0  0  0
 23 22  2  0  0  0  0
 25 23  1  0  0  0  0
 26 25  1  0  0  0  0
 27 25  2  0  0  0  0
 27 29  1  0  0  0  0
 28 27  1  0  0  0  0
 29 31  2  0  0  0  0
 30 29  1  0  0  0  0
 31 22  1  0  0  0  0
 31 32  1  0  0  0  0
M  END
>  <REMARK>
 33                     

$$$$
mol34.pdb
 OpenBabel11251619293D

 37 39  0  0  0  0  0  0  0  0999 V2000
   40.6670    6.5080   33.2570 C   0  0  0  0  0  0  0  0  0  0  0  0
   40.6720    7.5290   33.4090 H   0  0  0  0  0  0  0  0  0  0  0  0
   40.7750    6.0000   31.9590 C   0  0  0  0  0  0  0  0  0  0  0  0
   40.9260    7.1030   30.6390 Cl  0  0  0  0  0  0  0  0  0  0  0  0
   40.7650    4.6240   31.7300 C   0  0  0  0  0  0  0  0  0  0  0  0
   40.8760    4.1230   30.4580 O   0  0  0  0  0  0  0  0  0  0  0  0
   40.8500    3.1500   30.5190 H   0  0  0  0  0  0  0  0  0  0  0  0
   40.6440    3.7540   32.8110 C   0  0  0  0  0  0  0  0  0  0  0  0
   40.6150    2.0420   32.5920 Cl  0  0  0  0  0  0  0  0  0  0  0  0
   40.5370    4.2620   34.1090 C   0  0  0  0  0  0  0  0  0  0  0  0
   40.4450    3.6090   34.9030 H   0  0  0  0  0  0  0  0  0  0  0  0
   40.5520    5.6440   34.3520 C   0  0  0  0  0  0  0  0  0  0  0  0
   40.4020    6.0840   35.6820 N   0  0  0  0  0  0  0  0  0  0  0  0
   41.0030    5.5680   36.3320 H   0  0  0  0  0  0  0  0  0  0  0  0
   40.1200    7.3500   36.1440 C   0  0  0  0  0  0  0  0  0  0  0  0
   40.8220    7.8200   37.3710 C   0  0  0  0  0  0  0  0  0  0  0  0
   40.4330    9.0840   37.6110 N   0  0  0  0  0  0  0  0  0  0  0  0
   40.6880    9.6080   38.4310 H   0  0  0  0  0  0  0  0  0  0  0  0
   39.4130    9.4170   36.7950 C   0  0  0  0  0  0  0  0  0  0  0  0
   38.6990   10.3970   36.9240 O   0  0  0  0  0  0  0  0  0  0  0  0
   39.2540    8.3230   35.8040 C   0  0  0  0  0  0  0  0  0  0  0  0
   38.2510    8.3140   34.7340 C   0  0  0  0  0  0  0  0  0  0  0  0
   38.0960    9.4000   33.8520 C   0  0  0  0  0  0  0  0  0  0  0  0
   38.9650   10.4580   33.9640 O   0  0  0  0  0  0  0  0  0  0  0  0
   38.3130   11.7280   33.9160 C   0  0  0  0  0  0  0  0  0  0  0  0
   37.7980   11.8300   32.9840 H   0  0  0  0  0  0  0  0  0  0  0  0
   37.6110   11.7990   34.7210 H   0  0  0  0  0  0  0  0  0  0  0  0
   39.0410   12.5070   34.0080 H   0  0  0  0  0  0  0  0  0  0  0  0
   37.1470    9.3450   32.8230 C   0  0  0  0  0  0  0  0  0  0  0  0
   37.0540   10.1360   32.1670 H   0  0  0  0  0  0  0  0  0  0  0  0
   36.3270    8.2260   32.6820 C   0  0  0  0  0  0  0  0  0  0  0  0
   35.6250    8.1920   31.9260 H   0  0  0  0  0  0  0  0  0  0  0  0
   36.4550    7.1550   33.5610 C   0  0  0  0  0  0  0  0  0  0  0  0
   35.8460    6.3280   33.4590 H   0  0  0  0  0  0  0  0  0  0  0  0
   37.4080    7.2000   34.5810 C   0  0  0  0  0  0  0  0  0  0  0  0
   37.4940    6.4040   35.2320 H   0  0  0  0  0  0  0  0  0  0  0  0
   41.5810    7.1350   38.0330 O   0  0  0  0  0  0  0  0  0  0  0  0
  1  2  1  0  0  0  0
  1 12  2  0  0  0  0
  3  1  1  0  0  0  0
  4  3  1  0  0  0  0
  5  3  2  0  0  0  0
  5  8  1  0  0  0  0
  6  7  1  0  0  0  0
  6  5  1  0  0  0  0
  8 10  2  0  0  0  0
  9  8  1  0  0  0  0
 10 12  1  0  0  0  0
 10 11  1  0  0  0  0
 12 13  1  0  0  0  0
 13 15  1  0  0  0  0
 13 14  1  0  0  0  0
 15 16  1  0  0  0  0
 16 17  1  0  0  0  0
 16 37  2  0  0  0  0
 17 18  1  0  0  0  0
 19 20  2  0  0  0  0
 19 17  1  0  0  0  0
 21 15  2  0  0  0  0
 21 19  1  0  0  0  0
 22 21  1  0  0  0  0
 23 24  1  0  0  0  0
 23 22  2  0  0  0  0
 25 24  1  0  0  0  0
 25 28  1  0  0  0  0
 25 27  1  0  0  0  0
 26 25  1  0  0  0  0
 29 23  1  0  0  0  0
 30 29  1  0  0  0  0
 31 29  2  0  0  0  0
 31 33  1  0  0  0  0
 32 31  1  0  0  0  0
 33 35  2  0  0  0  0
 34 33  1  0  0  0  0
 35 22  1  0  0  0  0
 35 36  1  0  0  0  0
M  END
>  <REMARK>
 37                     

$$$$
mol35.pdb
 OpenBabel11251619293D

 35 37  0  0  0  0  0  0  0  0999 V2000
   38.2800    8.3260   34.7180 C   0  0  0  0  0  0  0  0  0  0  0  0
   39.2650    8.3090   35.8100 C   0  0  0  0  0  0  0  0  0  0  0  0
   39.3870    9.3900   36.8180 C   0  0  0  0  0  0  0  0  0  0  0  0
   40.3780    9.0590   37.6660 N   0  0  0  0  0  0  0  0  0  0  0  0
   40.7240    9.6380   38.3830 H   0  0  0  0  0  0  0  0  0  0  0  0
   40.8260    7.8220   37.3920 C   0  0  0  0  0  0  0  0  0  0  0  0
   41.6240    7.1580   38.0300 O   0  0  0  0  0  0  0  0  0  0  0  0
   40.1430    7.3500   36.1520 C   0  0  0  0  0  0  0  0  0  0  0  0
   40.4580    6.0960   35.6810 N   0  0  0  0  0  0  0  0  0  0  0  0
   40.6250    5.4150   36.3720 H   0  0  0  0  0  0  0  0  0  0  0  0
   40.5750    5.6490   34.3510 C   0  0  0  0  0  0  0  0  0  0  0  0
   40.5390    4.2660   34.1160 C   0  0  0  0  0  0  0  0  0  0  0  0
   40.4560    3.6180   34.9150 H   0  0  0  0  0  0  0  0  0  0  0  0
   40.6140    3.7510   32.8180 C   0  0  0  0  0  0  0  0  0  0  0  0
   40.5610    2.0380   32.6090 Cl  0  0  0  0  0  0  0  0  0  0  0  0
   40.7230    4.6150   31.7300 C   0  0  0  0  0  0  0  0  0  0  0  0
   40.7990    4.1070   30.4590 O   0  0  0  0  0  0  0  0  0  0  0  0
   40.7370    3.1820   30.3190 H   0  0  0  0  0  0  0  0  0  0  0  0
   40.7580    5.9920   31.9540 C   0  0  0  0  0  0  0  0  0  0  0  0
   40.8870    7.0890   30.6270 Cl  0  0  0  0  0  0  0  0  0  0  0  0
   40.6890    6.5060   33.2520 C   0  0  0  0  0  0  0  0  0  0  0  0
   40.7220    7.5270   33.4010 H   0  0  0  0  0  0  0  0  0  0  0  0
   38.6670   10.3690   36.8840 O   0  0  0  0  0  0  0  0  0  0  0  0
   38.1110    9.3930   33.8120 C   0  0  0  0  0  0  0  0  0  0  0  0
   39.0030   10.5520   33.8200 N   0  0  0  0  0  0  0  0  0  0  0  0
   40.2120   10.3370   33.9920 O   0  0  0  0  0  0  0  0  0  0  0  0
   38.5020   11.6620   33.5940 O   0  0  0  0  0  0  0  0  0  0  0  0
   37.1330    9.3550   32.8030 C   0  0  0  0  0  0  0  0  0  0  0  0
   37.0280   10.1500   32.1530 H   0  0  0  0  0  0  0  0  0  0  0  0
   36.3070    8.2410   32.6840 C   0  0  0  0  0  0  0  0  0  0  0  0
   35.5890    8.2050   31.9430 H   0  0  0  0  0  0  0  0  0  0  0  0
   36.4530    7.1760   33.5680 C   0  0  0  0  0  0  0  0  0  0  0  0
   35.8430    6.3480   33.4790 H   0  0  0  0  0  0  0  0  0  0  0  0
   37.4210    7.2200   34.5770 C   0  0  0  0  0  0  0  0  0  0  0  0
   37.5070    6.4260   35.2310 H   0  0  0  0  0  0  0  0  0  0  0  0
  1  2  1  0  0  0  0
  2  8  2  0  0  0  0
  2  3  1  0  0  0  0
  3 23  2  0  0  0  0
  3  4  1  0  0  0  0
  4  5  1  0  0  0  0
  6  4  1  0  0  0  0
  6  7  2  0  0  0  0
  8  6  1  0  0  0  0
  9  8  1  0  0  0  0
  9 10  1  0  0  0  0
 11  9  1  0  0  0  0
 12 11  1  0  0  0  0
 12 13  1  0  0  0  0
 14 12  2  0  0  0  0
 15 14  1  0  0  0  0
 16 19  2  0  0  0  0
 16 14  1  0  0  0  0
 17 16  1  0  0  0  0
 18 17  1  0  0  0  0
 19 21  1  0  0  0  0
 20 19  1  0  0  0  0
 21 22  1  0  0  0  0
 21 11  2  0  0  0  0
 24 25  1  0  0  0  0
 24  1  2  0  0  0  0
 25 26  2  0  0  0  0
 27 25  2  0  0  0  0
 28 24  1  0  0  0  0
 29 28  1  0  0  0  0
 30 28  2  0  0  0  0
 30 32  1  0  0  0  0
 31 30  1  0  0  0  0
 32 34  2  0  0  0  0
 33 32  1  0  0  0  0
 34  1  1  0  0  0  0
 34 35  1  0  0  0  0
M  END
>  <REMARK>
 35                     

$$$$
mol36.pdb
 OpenBabel11251619293D

 33 35  0  0  0  0  0  0  0  0999 V2000
   40.6870    6.5000   33.2470 C   0  0  0  0  0  0  0  0  0  0  0  0
   40.7210    7.5210   33.3960 H   0  0  0  0  0  0  0  0  0  0  0  0
   40.7660    5.9930   31.9420 C   0  0  0  0  0  0  0  0  0  0  0  0
   40.9090    7.0960   30.6280 Cl  0  0  0  0  0  0  0  0  0  0  0  0
   40.7250    4.6220   31.7160 C   0  0  0  0  0  0  0  0  0  0  0  0
   40.8030    4.0730   30.4600 O   0  0  0  0  0  0  0  0  0  0  0  0
   40.7650    3.1000   30.4530 H   0  0  0  0  0  0  0  0  0  0  0  0
   40.6040    3.7640   32.8080 C   0  0  0  0  0  0  0  0  0  0  0  0
   40.5420    2.0480   32.6080 Cl  0  0  0  0  0  0  0  0  0  0  0  0
   40.5250    4.2800   34.1040 C   0  0  0  0  0  0  0  0  0  0  0  0
   40.4360    3.6300   34.9010 H   0  0  0  0  0  0  0  0  0  0  0  0
   40.5640    5.6540   34.3460 C   0  0  0  0  0  0  0  0  0  0  0  0
   40.4230    6.1060   35.6640 N   0  0  0  0  0  0  0  0  0  0  0  0
   40.6230    5.4200   36.3890 H   0  0  0  0  0  0  0  0  0  0  0  0
   40.1290    7.3550   36.1490 C   0  0  0  0  0  0  0  0  0  0  0  0
   40.8070    7.8210   37.3900 C   0  0  0  0  0  0  0  0  0  0  0  0
   40.3750    9.0700   37.6490 N   0  0  0  0  0  0  0  0  0  0  0  0
   40.7040    9.6450   38.4030 H   0  0  0  0  0  0  0  0  0  0  0  0
   39.3810    9.4050   36.8040 C   0  0  0  0  0  0  0  0  0  0  0  0
   38.6750   10.3940   36.8720 O   0  0  0  0  0  0  0  0  0  0  0  0
   39.2670    8.3280   35.8010 C   0  0  0  0  0  0  0  0  0  0  0  0
   38.2900    8.3140   34.7340 C   0  0  0  0  0  0  0  0  0  0  0  0
   38.1530    9.3740   33.8550 C   0  0  0  0  0  0  0  0  0  0  0  0
   38.7550   10.2100   33.9210 H   0  0  0  0  0  0  0  0  0  0  0  0
   37.1750    9.2650   32.8840 C   0  0  0  0  0  0  0  0  0  0  0  0
   37.0130   10.5480   31.8020 Cl  0  0  0  0  0  0  0  0  0  0  0  0
   36.3180    8.2200   32.6880 C   0  0  0  0  0  0  0  0  0  0  0  0
   35.6140    8.2180   31.9340 H   0  0  0  0  0  0  0  0  0  0  0  0
   36.4580    7.1710   33.5650 C   0  0  0  0  0  0  0  0  0  0  0  0
   35.8530    6.3390   33.4850 H   0  0  0  0  0  0  0  0  0  0  0  0
   37.4240    7.2450   34.5600 C   0  0  0  0  0  0  0  0  0  0  0  0
   37.5030    6.4510   35.2140 H   0  0  0  0  0  0  0  0  0  0  0  0
   41.6000    7.1620   38.0370 O   0  0  0  0  0  0  0  0  0  0  0  0
  1  2  1  0  0  0  0
  1 12  2  0  0  0  0
  3  1  1  0  0  0  0
  4  3  1  0  0  0  0
  5  3  2  0  0  0  0
  5  8  1  0  0  0  0
  6  5  1  0  0  0  0
  7  6  1  0  0  0  0
  8 10  2  0  0  0  0
  9  8  1  0  0  0  0
 10 12  1  0  0  0  0
 10 11  1  0  0  0  0
 12 13  1  0  0  0  0
 13 15  1  0  0  0  0
 13 14  1  0  0  0  0
 15 16  1  0  0  0  0
 16 17  1  0  0  0  0
 16 33  2  0  0  0  0
 17 18  1  0  0  0  0
 19 20  2  0  0  0  0
 19 17  1  0  0  0  0
 21 15  2  0  0  0  0
 21 19  1  0  0  0  0
 22 21  1  0  0  0  0
 23 24  1  0  0  0  0
 23 22  2  0  0  0  0
 25 23  1  0  0  0  0
 26 25  1  0  0  0  0
 27 25  2  0  0  0  0
 27 29  1  0  0  0  0
 28 27  1  0  0  0  0
 29 31  2  0  0  0  0
 30 29  1  0  0  0  0
 31 22  1  0  0  0  0
 31 32  1  0  0  0  0
M  END
>  <REMARK>
 33                     

$$$$
mol37.pdb
 OpenBabel11251619293D

 37 39  0  0  0  0  0  0  0  0999 V2000
   40.6650    6.5180   33.2680 C   0  0  0  0  0  0  0  0  0  0  0  0
   40.6670    7.5370   33.4290 H   0  0  0  0  0  0  0  0  0  0  0  0
   40.7690    6.0230   31.9650 C   0  0  0  0  0  0  0  0  0  0  0  0
   40.9040    7.1370   30.6520 Cl  0  0  0  0  0  0  0  0  0  0  0  0
   40.7690    4.6490   31.7230 C   0  0  0  0  0  0  0  0  0  0  0  0
   40.8710    4.1590   30.4480 O   0  0  0  0  0  0  0  0  0  0  0  0
   40.8550    3.1840   30.5000 H   0  0  0  0  0  0  0  0  0  0  0  0
   40.6630    3.7680   32.7990 C   0  0  0  0  0  0  0  0  0  0  0  0
   40.6490    2.0580   32.5670 Cl  0  0  0  0  0  0  0  0  0  0  0  0
   40.5580    4.2650   34.1020 C   0  0  0  0  0  0  0  0  0  0  0  0
   40.4790    3.6050   34.8910 H   0  0  0  0  0  0  0  0  0  0  0  0
   40.5580    5.6450   34.3560 C   0  0  0  0  0  0  0  0  0  0  0  0
   40.4000    6.0720   35.6910 N   0  0  0  0  0  0  0  0  0  0  0  0
   41.0080    5.5590   36.3360 H   0  0  0  0  0  0  0  0  0  0  0  0
   40.1070    7.3340   36.1590 C   0  0  0  0  0  0  0  0  0  0  0  0
   40.7990    7.8060   37.3920 C   0  0  0  0  0  0  0  0  0  0  0  0
   40.3800    9.0560   37.6490 N   0  0  0  0  0  0  0  0  0  0  0  0
   40.6700    9.6090   38.4370 H   0  0  0  0  0  0  0  0  0  0  0  0
   39.4250    9.4210   36.7720 C   0  0  0  0  0  0  0  0  0  0  0  0
   38.8120   10.4730   36.7840 O   0  0  0  0  0  0  0  0  0  0  0  0
   39.2380    8.3030   35.8150 C   0  0  0  0  0  0  0  0  0  0  0  0
   38.2320    8.2840   34.7490 C   0  0  0  0  0  0  0  0  0  0  0  0
   38.0810    9.3770   33.8840 C   0  0  0  0  0  0  0  0  0  0  0  0
   38.6750   10.2110   34.0120 H   0  0  0  0  0  0  0  0  0  0  0  0
   37.1380    9.3560   32.8500 C   0  0  0  0  0  0  0  0  0  0  0  0
   37.1160   10.4810   32.0720 O   0  0  0  0  0  0  0  0  0  0  0  0
   36.2100   10.4870   30.9760 C   0  0  0  0  0  0  0  0  0  0  0  0
   36.4470    9.6820   30.3130 H   0  0  0  0  0  0  0  0  0  0  0  0
   35.2110   10.3670   31.3390 H   0  0  0  0  0  0  0  0  0  0  0  0
   36.2900   11.4160   30.4520 H   0  0  0  0  0  0  0  0  0  0  0  0
   36.3210    8.2370   32.6900 C   0  0  0  0  0  0  0  0  0  0  0  0
   35.6230    8.2130   31.9310 H   0  0  0  0  0  0  0  0  0  0  0  0
   36.4470    7.1490   33.5560 C   0  0  0  0  0  0  0  0  0  0  0  0
   35.8370    6.3250   33.4390 H   0  0  0  0  0  0  0  0  0  0  0  0
   37.3960    7.1730   34.5790 C   0  0  0  0  0  0  0  0  0  0  0  0
   37.4830    6.3650   35.2160 H   0  0  0  0  0  0  0  0  0  0  0  0
   41.5920    7.1370   38.0320 O   0  0  0  0  0  0  0  0  0  0  0  0
  1  2  1  0  0  0  0
  1 12  2  0  0  0  0
  3  1  1  0  0  0  0
  4  3  1  0  0  0  0
  5  3  2  0  0  0  0
  5  8  1  0  0  0  0
  6  7  1  0  0  0  0
  6  5  1  0  0  0  0
  8 10  2  0  0  0  0
  9  8  1  0  0  0  0
 10 12  1  0  0  0  0
 10 11  1  0  0  0  0
 12 13  1  0  0  0  0
 13 15  1  0  0  0  0
 13 14  1  0  0  0  0
 15 16  1  0  0  0  0
 16 17  1  0  0  0  0
 16 37  2  0  0  0  0
 17 18  1  0  0  0  0
 19 20  2  0  0  0  0
 19 17  1  0  0  0  0
 21 15  2  0  0  0  0
 21 19  1  0  0  0  0
 22 21  1  0  0  0  0
 23 24  1  0  0  0  0
 23 22  2  0  0  0  0
 25 23  1  0  0  0  0
 26 25  1  0  0  0  0
 27 29  1  0  0  0  0
 27 26  1  0  0  0  0
 28 27  1  0  0  0  0
 30 27  1  0  0  0  0
 31 25  2  0  0  0  0
 31 33  1  0  0  0  0
 32 31  1  0  0  0  0
 33 35  2  0  0  0  0
 34 33  1  0  0  0  0
 35 22  1  0  0  0  0
 35 36  1  0  0  0  0
M  END
>  <REMARK>
 37                    

$$$$
mol38.pdb
 OpenBabel11251619293D

 35 37  0  0  0  0  0  0  0  0999 V2000
   38.2340    8.2810   34.7480 C   0  0  0  0  0  0  0  0  0  0  0  0
   39.2340    8.2920   35.8210 C   0  0  0  0  0  0  0  0  0  0  0  0
   39.4190    9.4140   36.7730 C   0  0  0  0  0  0  0  0  0  0  0  0
   40.3730    9.0550   37.6540 N   0  0  0  0  0  0  0  0  0  0  0  0
   40.7060    9.6240   38.3850 H   0  0  0  0  0  0  0  0  0  0  0  0
   40.8060    7.8100   37.3930 C   0  0  0  0  0  0  0  0  0  0  0  0
   41.6190    7.1560   38.0210 O   0  0  0  0  0  0  0  0  0  0  0  0
   40.1070    7.3280   36.1670 C   0  0  0  0  0  0  0  0  0  0  0  0
   40.4090    6.0690   35.6990 N   0  0  0  0  0  0  0  0  0  0  0  0
   40.5360    5.3760   36.3870 H   0  0  0  0  0  0  0  0  0  0  0  0
   40.5600    5.6420   34.3640 C   0  0  0  0  0  0  0  0  0  0  0  0
   40.5590    4.2630   34.1080 C   0  0  0  0  0  0  0  0  0  0  0  0
   40.4860    3.6010   34.8960 H   0  0  0  0  0  0  0  0  0  0  0  0
   40.6550    3.7690   32.8020 C   0  0  0  0  0  0  0  0  0  0  0  0
   40.6390    2.0600   32.5670 Cl  0  0  0  0  0  0  0  0  0  0  0  0
   40.7500    4.6520   31.7270 C   0  0  0  0  0  0  0  0  0  0  0  0
   40.8380    4.1650   30.4500 O   0  0  0  0  0  0  0  0  0  0  0  0
   40.8200    3.1900   30.4960 H   0  0  0  0  0  0  0  0  0  0  0  0
   40.7530    6.0250   31.9720 C   0  0  0  0  0  0  0  0  0  0  0  0
   40.8640    7.1460   30.6640 Cl  0  0  0  0  0  0  0  0  0  0  0  0
   40.6630    6.5170   33.2770 C   0  0  0  0  0  0  0  0  0  0  0  0
   40.6730    7.5360   33.4410 H   0  0  0  0  0  0  0  0  0  0  0  0
   38.8050   10.4640   36.7690 O   0  0  0  0  0  0  0  0  0  0  0  0
   38.0850    9.3910   33.9040 C   0  0  0  0  0  0  0  0  0  0  0  0
   38.6730   10.2270   34.0430 H   0  0  0  0  0  0  0  0  0  0  0  0
   37.1350    9.3640   32.8700 C   0  0  0  0  0  0  0  0  0  0  0  0
   37.0010   10.5210   31.9760 N   0  0  0  0  0  0  0  0  0  0  0  0
   37.7580   11.4840   32.1610 O   0  0  0  0  0  0  0  0  0  0  0  0
   36.1480   10.4610   31.0800 O   0  0  0  0  0  0  0  0  0  0  0  0
   36.3200    8.2420   32.6760 C   0  0  0  0  0  0  0  0  0  0  0  0
   35.6250    8.2290   31.9140 H   0  0  0  0  0  0  0  0  0  0  0  0
   36.4570    7.1440   33.5220 C   0  0  0  0  0  0  0  0  0  0  0  0
   35.8580    6.3140   33.3900 H   0  0  0  0  0  0  0  0  0  0  0  0
   37.4040    7.1650   34.5500 C   0  0  0  0  0  0  0  0  0  0  0  0
   37.4950    6.3480   35.1730 H   0  0  0  0  0  0  0  0  0  0  0  0
  1  2  1  0  0  0  0
  2  8  2  0  0  0  0
  2  3  1  0  0  0  0
  3  4  1  0  0  0  0
  4  5  1  0  0  0  0
  6  4  1  0  0  0  0
  6  7  2  0  0  0  0
  8  6  1  0  0  0  0
  9  8  1  0  0  0  0
  9 10  1  0  0  0  0
 11  9  1  0  0  0  0
 12 11  1  0  0  0  0
 12 13  1  0  0  0  0
 14 12  2  0  0  0  0
 15 14  1  0  0  0  0
 16 19  2  0  0  0  0
 16 14  1  0  0  0  0
 17 18  1  0  0  0  0
 17 16  1  0  0  0  0
 19 21  1  0  0  0  0
 20 19  1  0  0  0  0
 21 22  1  0  0  0  0
 21 11  2  0  0  0  0
 23  3  2  0  0  0  0
 24 25  1  0  0  0  0
 24  1  2  0  0  0  0
 26 24  1  0  0  0  0
 27 28  2  0  0  0  0
 27 26  1  0  0  0  0
 29 27  2  0  0  0  0
 30 26  2  0  0  0  0
 30 32  1  0  0  0  0
 31 30  1  0  0  0  0
 32 34  2  0  0  0  0
 33 32  1  0  0  0  0
 34  1  1  0  0  0  0
 34 35  1  0  0  0  0
M  END
>  <REMARK>
 35                     

$$$$
mol39.pdb
 OpenBabel11251619293D

 33 35  0  0  0  0  0  0  0  0999 V2000
   40.6550    6.5030   33.2660 C   0  0  0  0  0  0  0  0  0  0  0  0
   40.6640    7.5220   33.4280 H   0  0  0  0  0  0  0  0  0  0  0  0
   40.7500    6.0170   31.9560 C   0  0  0  0  0  0  0  0  0  0  0  0
   40.8610    7.1410   30.6560 Cl  0  0  0  0  0  0  0  0  0  0  0  0
   40.7500    4.6470   31.7110 C   0  0  0  0  0  0  0  0  0  0  0  0
   40.8400    4.1180   30.4480 O   0  0  0  0  0  0  0  0  0  0  0  0
   40.8260    3.1450   30.4270 H   0  0  0  0  0  0  0  0  0  0  0  0
   40.6540    3.7740   32.7930 C   0  0  0  0  0  0  0  0  0  0  0  0
   40.6410    2.0590   32.5700 Cl  0  0  0  0  0  0  0  0  0  0  0  0
   40.5550    4.2710   34.0960 C   0  0  0  0  0  0  0  0  0  0  0  0
   40.4850    3.6080   34.8840 H   0  0  0  0  0  0  0  0  0  0  0  0
   40.5490    5.6420   34.3560 C   0  0  0  0  0  0  0  0  0  0  0  0
   40.3770    6.0770   35.6770 N   0  0  0  0  0  0  0  0  0  0  0  0
   40.5480    5.3810   36.4000 H   0  0  0  0  0  0  0  0  0  0  0  0
   40.0880    7.3310   36.1580 C   0  0  0  0  0  0  0  0  0  0  0  0
   40.7870    7.8120   37.3820 C   0  0  0  0  0  0  0  0  0  0  0  0
   40.3550    9.0620   37.6350 N   0  0  0  0  0  0  0  0  0  0  0  0
   40.6820    9.6390   38.3870 H   0  0  0  0  0  0  0  0  0  0  0  0
   39.3980    9.4180   36.7570 C   0  0  0  0  0  0  0  0  0  0  0  0
   38.7850   10.4700   36.7500 O   0  0  0  0  0  0  0  0  0  0  0  0
   39.2250    8.2960   35.8130 C   0  0  0  0  0  0  0  0  0  0  0  0
   38.2300    8.2790   34.7430 C   0  0  0  0  0  0  0  0  0  0  0  0
   38.0960    9.3880   33.9150 C   0  0  0  0  0  0  0  0  0  0  0  0
   38.6870   10.2200   34.0650 H   0  0  0  0  0  0  0  0  0  0  0  0
   37.1690    9.3730   32.8900 C   0  0  0  0  0  0  0  0  0  0  0  0
   37.0520   10.1740   32.2500 H   0  0  0  0  0  0  0  0  0  0  0  0
   36.4150    8.2370   32.7700 C   0  0  0  0  0  0  0  0  0  0  0  0
   35.2760    8.1920   31.5310 Cl  0  0  0  0  0  0  0  0  0  0  0  0
   36.4860    7.1220   33.5570 C   0  0  0  0  0  0  0  0  0  0  0  0
   35.8770    6.3030   33.4040 H   0  0  0  0  0  0  0  0  0  0  0  0
   37.4240    7.1590   34.5710 C   0  0  0  0  0  0  0  0  0  0  0  0
   37.5270    6.3510   35.2040 H   0  0  0  0  0  0  0  0  0  0  0  0
   41.6000    7.1690   38.0200 O   0  0  0  0  0  0  0  0  0  0  0  0
  1  2  1  0  0  0  0
  1 12  2  0  0  0  0
  3  1  1  0  0  0  0
  4  3  1  0  0  0  0
  5  3  2  0  0  0  0
  5  8  1  0  0  0  0
  6  5  1  0  0  0  0
  7  6  1  0  0  0  0
  8 10  2  0  0  0  0
  9  8  1  0  0  0  0
 10 12  1  0  0  0  0
 10 11  1  0  0  0  0
 12 13  1  0  0  0  0
 13 15  1  0  0  0  0
 13 14  1  0  0  0  0
 15 16  1  0  0  0  0
 16 17  1  0  0  0  0
 16 33  2  0  0  0  0
 17 18  1  0  0  0  0
 19 17  1  0  0  0  0
 20 19  2  0  0  0  0
 21 15  2  0  0  0  0
 21 19  1  0  0  0  0
 22 21  1  0  0  0  0
 23 24  1  0  0  0  0
 23 22  2  0  0  0  0
 25 23  1  0  0  0  0
 26 25  1  0  0  0  0
 27 25  2  0  0  0  0
 27 29  1  0  0  0  0
 28 27  1  0  0  0  0
 29 31  2  0  0  0  0
 30 29  1  0  0  0  0
 31 22  1  0  0  0  0
 31 32  1  0  0  0  0
M  END
>  <REMARK>
 33                     

$$$$
mol40.pdb
 OpenBabel11251619293D

 37 39  0  0  0  0  0  0  0  0999 V2000
   40.6750    6.5330   33.2920 C   0  0  0  0  0  0  0  0  0  0  0  0
   40.6910    7.5500   33.4680 H   0  0  0  0  0  0  0  0  0  0  0  0
   40.7870    6.0570   31.9830 C   0  0  0  0  0  0  0  0  0  0  0  0
   40.9530    7.1900   30.6900 Cl  0  0  0  0  0  0  0  0  0  0  0  0
   40.7660    4.6870   31.7210 C   0  0  0  0  0  0  0  0  0  0  0  0
   40.8740    4.2160   30.4390 O   0  0  0  0  0  0  0  0  0  0  0  0
   40.8410    3.2420   30.4750 H   0  0  0  0  0  0  0  0  0  0  0  0
   40.6350    3.7930   32.7820 C   0  0  0  0  0  0  0  0  0  0  0  0
   40.5950    2.0870   32.5240 Cl  0  0  0  0  0  0  0  0  0  0  0  0
   40.5220    4.2710   34.0930 C   0  0  0  0  0  0  0  0  0  0  0  0
   40.4230    3.6000   34.8710 H   0  0  0  0  0  0  0  0  0  0  0  0
   40.5410    5.6470   34.3670 C   0  0  0  0  0  0  0  0  0  0  0  0
   40.3730    6.0600   35.7060 N   0  0  0  0  0  0  0  0  0  0  0  0
   40.9850    5.5450   36.3460 H   0  0  0  0  0  0  0  0  0  0  0  0
   40.0920    7.3250   36.1740 C   0  0  0  0  0  0  0  0  0  0  0  0
   40.7970    7.8000   37.3980 C   0  0  0  0  0  0  0  0  0  0  0  0
   40.3860    9.0530   37.6510 N   0  0  0  0  0  0  0  0  0  0  0  0
   40.7010    9.6190   38.4210 H   0  0  0  0  0  0  0  0  0  0  0  0
   39.4470    9.4310   36.7600 C   0  0  0  0  0  0  0  0  0  0  0  0
   38.8790   10.5070   36.7360 O   0  0  0  0  0  0  0  0  0  0  0  0
   39.2320    8.3000   35.8260 C   0  0  0  0  0  0  0  0  0  0  0  0
   38.2270    8.2780   34.7580 C   0  0  0  0  0  0  0  0  0  0  0  0
   38.0600    9.3750   33.9050 C   0  0  0  0  0  0  0  0  0  0  0  0
   38.6330   10.2230   34.0410 H   0  0  0  0  0  0  0  0  0  0  0  0
   37.1200    9.3290   32.8680 C   0  0  0  0  0  0  0  0  0  0  0  0
   37.0110   10.1430   32.2430 H   0  0  0  0  0  0  0  0  0  0  0  0
   36.3280    8.1970   32.6690 C   0  0  0  0  0  0  0  0  0  0  0  0
   35.4600    8.2800   31.6170 O   0  0  0  0  0  0  0  0  0  0  0  0
   34.6740    7.1270   31.3430 C   0  0  0  0  0  0  0  0  0  0  0  0
   35.3170    6.3010   31.1230 H   0  0  0  0  0  0  0  0  0  0  0  0
   34.0730    6.8940   32.1970 H   0  0  0  0  0  0  0  0  0  0  0  0
   34.0400    7.3190   30.5020 H   0  0  0  0  0  0  0  0  0  0  0  0
   36.4720    7.1110   33.5290 C   0  0  0  0  0  0  0  0  0  0  0  0
   35.8850    6.2720   33.4010 H   0  0  0  0  0  0  0  0  0  0  0  0
   37.4110    7.1540   34.5660 C   0  0  0  0  0  0  0  0  0  0  0  0
   37.5040    6.3450   35.2000 H   0  0  0  0  0  0  0  0  0  0  0  0
   41.5970    7.1350   38.0320 O   0  0  0  0  0  0  0  0  0  0  0  0
  1  2  1  0  0  0  0
  1 12  2  0  0  0  0
  3  1  1  0  0  0  0
  4  3  1  0  0  0  0
  5  3  2  0  0  0  0
  5  8  1  0  0  0  0
  6  7  1  0  0  0  0
  6  5  1  0  0  0  0
  8 10  2  0  0  0  0
  9  8  1  0  0  0  0
 10 12  1  0  0  0  0
 10 11  1  0  0  0  0
 12 13  1  0  0  0  0
 13 15  1  0  0  0  0
 13 14  1  0  0  0  0
 15 16  1  0  0  0  0
 16 17  1  0  0  0  0
 16 37  2  0  0  0  0
 17 18  1  0  0  0  0
 19 17  1  0  0  0  0
 20 19  2  0  0  0  0
 21 15  2  0  0  0  0
 21 19  1  0  0  0  0
 22 21  1  0  0  0  0
 23 24  1  0  0  0  0
 23 22  2  0  0  0  0
 25 23  1  0  0  0  0
 26 25  1  0  0  0  0
 27 25  2  0  0  0  0
 27 33  1  0  0  0  0
 28 27  1  0  0  0  0
 29 28  1  0  0  0  0
 29 31  1  0  0  0  0
 30 29  1  0  0  0  0
 32 29  1  0  0  0  0
 33 35  2  0  0  0  0
 34 33  1  0  0  0  0
 35 22  1  0  0  0  0
 35 36  1  0  0  0  0
M  END
>  <REMARK>
 37                     

$$$$
mol41.pdb
 OpenBabel11251619293D

 35 37  0  0  0  0  0  0  0  0999 V2000
   38.2260    8.2740   34.7490 C   0  0  0  0  0  0  0  0  0  0  0  0
   39.2280    8.2890   35.8210 C   0  0  0  0  0  0  0  0  0  0  0  0
   39.4320    9.4200   36.7600 C   0  0  0  0  0  0  0  0  0  0  0  0
   40.3760    9.0530   37.6490 N   0  0  0  0  0  0  0  0  0  0  0  0
   40.7060    9.6190   38.3840 H   0  0  0  0  0  0  0  0  0  0  0  0
   40.8030    7.8060   37.3910 C   0  0  0  0  0  0  0  0  0  0  0  0
   41.6200    7.1530   38.0160 O   0  0  0  0  0  0  0  0  0  0  0  0
   40.0960    7.3220   36.1700 C   0  0  0  0  0  0  0  0  0  0  0  0
   40.3900    6.0590   35.7070 N   0  0  0  0  0  0  0  0  0  0  0  0
   40.4990    5.3630   36.3940 H   0  0  0  0  0  0  0  0  0  0  0  0
   40.5540    5.6380   34.3700 C   0  0  0  0  0  0  0  0  0  0  0  0
   40.5460    4.2600   34.1070 C   0  0  0  0  0  0  0  0  0  0  0  0
   40.4610    3.5940   34.8910 H   0  0  0  0  0  0  0  0  0  0  0  0
   40.6510    3.7740   32.7990 C   0  0  0  0  0  0  0  0  0  0  0  0
   40.6260    2.0650   32.5540 Cl  0  0  0  0  0  0  0  0  0  0  0  0
   40.7650    4.6610   31.7300 C   0  0  0  0  0  0  0  0  0  0  0  0
   40.8640    4.1810   30.4510 O   0  0  0  0  0  0  0  0  0  0  0  0
   40.8340    3.2060   30.4910 H   0  0  0  0  0  0  0  0  0  0  0  0
   40.7760    6.0330   31.9830 C   0  0  0  0  0  0  0  0  0  0  0  0
   40.9130    7.1600   30.6810 Cl  0  0  0  0  0  0  0  0  0  0  0  0
   40.6750    6.5180   33.2890 C   0  0  0  0  0  0  0  0  0  0  0  0
   40.6900    7.5360   33.4580 H   0  0  0  0  0  0  0  0  0  0  0  0
   38.8450   10.4860   36.7380 O   0  0  0  0  0  0  0  0  0  0  0  0
   38.0490    9.3960   33.9230 C   0  0  0  0  0  0  0  0  0  0  0  0
   38.6240   10.2390   34.0780 H   0  0  0  0  0  0  0  0  0  0  0  0
   37.1030    9.3860   32.8920 C   0  0  0  0  0  0  0  0  0  0  0  0
   36.9840   10.2150   32.2890 H   0  0  0  0  0  0  0  0  0  0  0  0
   36.3210    8.2470   32.6840 C   0  0  0  0  0  0  0  0  0  0  0  0
   35.3320    8.2290   31.6010 N   0  0  0  0  0  0  0  0  0  0  0  0
   34.8250    7.1380   31.3030 O   0  0  0  0  0  0  0  0  0  0  0  0
   35.0650    9.3050   31.0470 O   0  0  0  0  0  0  0  0  0  0  0  0
   36.4720    7.1230   33.5030 C   0  0  0  0  0  0  0  0  0  0  0  0
   35.8900    6.2850   33.3490 H   0  0  0  0  0  0  0  0  0  0  0  0
   37.4190    7.1450   34.5340 C   0  0  0  0  0  0  0  0  0  0  0  0
   37.5250    6.3200   35.1450 H   0  0  0  0  0  0  0  0  0  0  0  0
  1  2  1  0  0  0  0
  2  8  2  0  0  0  0
  2  3  1  0  0  0  0
  3  4  1  0  0  0  0
  4  5  1  0  0  0  0
  6  4  1  0  0  0  0
  6  7  2  0  0  0  0
  8  6  1  0  0  0  0
  9  8  1  0  0  0  0
  9 10  1  0  0  0  0
 11  9  1  0  0  0  0
 12 11  1  0  0  0  0
 12 13  1  0  0  0  0
 14 12  2  0  0  0  0
 15 14  1  0  0  0  0
 16 19  2  0  0  0  0
 16 14  1  0  0  0  0
 17 18  1  0  0  0  0
 17 16  1  0  0  0  0
 19 21  1  0  0  0  0
 20 19  1  0  0  0  0
 21 22  1  0  0  0  0
 21 11  2  0  0  0  0
 23  3  2  0  0  0  0
 24 25  1  0  0  0  0
 24  1  2  0  0  0  0
 26 24  1  0  0  0  0
 27 26  1  0  0  0  0
 28 26  2  0  0  0  0
 28 32  1  0  0  0  0
 29 28  1  0  0  0  0
 30 29  2  0  0  0  0
 31 29  2  0  0  0  0
 32 34  2  0  0  0  0
 33 32  1  0  0  0  0
 34  1  1  0  0  0  0
 34 35  1  0  0  0  0
M  END
>  <REMARK>
 35                     

$$$$
mol42.pdb
 OpenBabel11251619293D

 35 37  0  0  0  0  0  0  0  0999 V2000
   40.5860    5.6410   34.3600 C   0  0  0  0  0  0  0  0  0  0  0  0
   40.6210    4.2560   34.1370 C   0  0  0  0  0  0  0  0  0  0  0  0
   40.6090    3.6130   34.9440 H   0  0  0  0  0  0  0  0  0  0  0  0
   40.6720    3.7300   32.8380 C   0  0  0  0  0  0  0  0  0  0  0  0
   40.6940    2.2560   32.6820 C   0  0  0  0  0  0  0  0  0  0  0  0
   40.6710    1.8670   31.3950 O   0  0  0  0  0  0  0  0  0  0  0  0
   40.6810    0.8880   31.4470 H   0  0  0  0  0  0  0  0  0  0  0  0
   40.7230    1.4440   33.5880 O   0  0  0  0  0  0  0  0  0  0  0  0
   40.6920    4.5940   31.7410 C   0  0  0  0  0  0  0  0  0  0  0  0
   40.7270    4.2140   30.7820 H   0  0  0  0  0  0  0  0  0  0  0  0
   40.6640    5.9710   31.9480 C   0  0  0  0  0  0  0  0  0  0  0  0
   40.6820    6.6130   31.1400 H   0  0  0  0  0  0  0  0  0  0  0  0
   40.6120    6.4870   33.2470 C   0  0  0  0  0  0  0  0  0  0  0  0
   40.5920    7.5090   33.3860 H   0  0  0  0  0  0  0  0  0  0  0  0
   40.4590    6.0930   35.6880 N   0  0  0  0  0  0  0  0  0  0  0  0
   41.0810    5.5930   36.3290 H   0  0  0  0  0  0  0  0  0  0  0  0
   40.1240    7.3420   36.1590 C   0  0  0  0  0  0  0  0  0  0  0  0
   40.8050    7.8170   37.3980 C   0  0  0  0  0  0  0  0  0  0  0  0
   40.3500    9.0500   37.6750 N   0  0  0  0  0  0  0  0  0  0  0  0
   40.6350    9.6050   38.4640 H   0  0  0  0  0  0  0  0  0  0  0  0
   39.4020    9.4100   36.7910 C   0  0  0  0  0  0  0  0  0  0  0  0
   38.7880   10.4610   36.8010 O   0  0  0  0  0  0  0  0  0  0  0  0
   39.2360    8.2970   35.8200 C   0  0  0  0  0  0  0  0  0  0  0  0
   38.2380    8.2900   34.7420 C   0  0  0  0  0  0  0  0  0  0  0  0
   38.0110    9.4420   33.9750 C   0  0  0  0  0  0  0  0  0  0  0  0
   38.5400   10.3040   34.1800 H   0  0  0  0  0  0  0  0  0  0  0  0
   37.0760    9.4360   32.9350 C   0  0  0  0  0  0  0  0  0  0  0  0
   36.9220   10.2900   32.3760 H   0  0  0  0  0  0  0  0  0  0  0  0
   36.3530    8.2810   32.6530 C   0  0  0  0  0  0  0  0  0  0  0  0
   35.6690    8.2750   31.8800 H   0  0  0  0  0  0  0  0  0  0  0  0
   36.5540    7.1330   33.4170 C   0  0  0  0  0  0  0  0  0  0  0  0
   36.0160    6.2760   33.2130 H   0  0  0  0  0  0  0  0  0  0  0  0
   37.4840    7.1420   34.4600 C   0  0  0  0  0  0  0  0  0  0  0  0
   37.6180    6.2920   35.0300 H   0  0  0  0  0  0  0  0  0  0  0  0
   41.6220    7.1690   38.0280 O   0  0  0  0  0  0  0  0  0  0  0  0
  1 15  1  0  0  0  0
  2  1  1  0  0  0  0
  2  3  1  0  0  0  0
  4  2  2  0  0  0  0
  5  4  1  0  0  0  0
  5  8  2  0  0  0  0
  6  7  1  0  0  0  0
  6  5  1  0  0  0  0
  9 11  2  0  0  0  0
  9  4  1  0  0  0  0
 10  9  1  0  0  0  0
 11 13  1  0  0  0  0
 12 11  1  0  0  0  0
 13 14  1  0  0  0  0
 13  1  2  0  0  0  0
 15 17  1  0  0  0  0
 15 16  1  0  0  0  0
 17 18  1  0  0  0  0
 18 19  1  0  0  0  0
 18 35  2  0  0  0  0
 19 20  1  0  0  0  0
 21 22  2  0  0  0  0
 21 19  1  0  0  0  0
 23 17  2  0  0  0  0
 23 21  1  0  0  0  0
 24 23  1  0  0  0  0
 25 26  1  0  0  0  0
 25 24  2  0  0  0  0
 27 25  1  0  0  0  0
 28 27  1  0  0  0  0
 29 27  2  0  0  0  0
 29 31  1  0  0  0  0
 30 29  1  0  0  0  0
 31 33  2  0  0  0  0
 32 31  1  0  0  0  0
 33 24  1  0  0  0  0
 33 34  1  0  0  0  0
M  END
>  <REMARK>
 35                    

$$$$
mol43.pdb
 OpenBabel11251619293D

 35 37  0  0  0  0  0  0  0  0999 V2000
   40.6160    5.6780   34.3260 C   0  0  0  0  0  0  0  0  0  0  0  0
   40.5970    4.2880   34.1320 C   0  0  0  0  0  0  0  0  0  0  0  0
   40.5870    3.6630   34.9530 H   0  0  0  0  0  0  0  0  0  0  0  0
   40.5920    3.7330   32.8450 C   0  0  0  0  0  0  0  0  0  0  0  0
   40.5700    2.2560   32.7210 C   0  0  0  0  0  0  0  0  0  0  0  0
   40.6230    1.8360   31.4450 O   0  0  0  0  0  0  0  0  0  0  0  0
   40.6140    0.8590   31.5180 H   0  0  0  0  0  0  0  0  0  0  0  0
   40.5190    1.4650   33.6450 O   0  0  0  0  0  0  0  0  0  0  0  0
   40.6010    4.5730   31.7290 C   0  0  0  0  0  0  0  0  0  0  0  0
   40.5940    4.1720   30.7780 H   0  0  0  0  0  0  0  0  0  0  0  0
   40.6200    5.9550   31.9060 C   0  0  0  0  0  0  0  0  0  0  0  0
   40.6280    6.5790   31.0840 H   0  0  0  0  0  0  0  0  0  0  0  0
   40.6280    6.4990   33.1940 C   0  0  0  0  0  0  0  0  0  0  0  0
   40.6430    7.5240   33.3110 H   0  0  0  0  0  0  0  0  0  0  0  0
   40.5720    6.1610   35.6420 N   0  0  0  0  0  0  0  0  0  0  0  0
   40.8580    5.5140   36.3270 H   0  0  0  0  0  0  0  0  0  0  0  0
   40.1960    7.3870   36.1320 C   0  0  0  0  0  0  0  0  0  0  0  0
   40.8250    7.8490   37.4050 C   0  0  0  0  0  0  0  0  0  0  0  0
   40.3300    9.0630   37.6980 N   0  0  0  0  0  0  0  0  0  0  0  0
   40.6570    9.6470   38.4200 H   0  0  0  0  0  0  0  0  0  0  0  0
   39.3210    9.3640   36.8590 C   0  0  0  0  0  0  0  0  0  0  0  0
   38.5310   10.2800   36.9910 O   0  0  0  0  0  0  0  0  0  0  0  0
   39.2830    8.3190   35.8060 C   0  0  0  0  0  0  0  0  0  0  0  0
   38.3070    8.3170   34.7130 C   0  0  0  0  0  0  0  0  0  0  0  0
   38.2170    9.3620   33.7760 C   0  0  0  0  0  0  0  0  0  0  0  0
   39.3260   10.6910   33.7670 Cl  0  0  0  0  0  0  0  0  0  0  0  0
   37.2510    9.3290   32.7630 C   0  0  0  0  0  0  0  0  0  0  0  0
   37.1890   10.1060   32.0860 H   0  0  0  0  0  0  0  0  0  0  0  0
   36.3730    8.2510   32.6650 C   0  0  0  0  0  0  0  0  0  0  0  0
   35.6610    8.2300   31.9180 H   0  0  0  0  0  0  0  0  0  0  0  0
   36.4590    7.2030   33.5770 C   0  0  0  0  0  0  0  0  0  0  0  0
   35.8170    6.3990   33.5000 H   0  0  0  0  0  0  0  0  0  0  0  0
   37.4140    7.2380   34.5970 C   0  0  0  0  0  0  0  0  0  0  0  0
   37.4640    6.4610   35.2740 H   0  0  0  0  0  0  0  0  0  0  0  0
   41.6160    7.1930   38.0600 O   0  0  0  0  0  0  0  0  0  0  0  0
  1 15  1  0  0  0  0
  2  1  1  0  0  0  0
  2  3  1  0  0  0  0
  4  2  2  0  0  0  0
  5  4  1  0  0  0  0
  5  8  2  0  0  0  0
  6  7  1  0  0  0  0
  6  5  1  0  0  0  0
  9 11  2  0  0  0  0
  9  4  1  0  0  0  0
 10  9  1  0  0  0  0
 11 13  1  0  0  0  0
 12 11  1  0  0  0  0
 13 14  1  0  0  0  0
 13  1  2  0  0  0  0
 15 17  1  0  0  0  0
 15 16  1  0  0  0  0
 17 18  1  0  0  0  0
 18 19  1  0  0  0  0
 18 35  2  0  0  0  0
 19 20  1  0  0  0  0
 21 22  2  0  0  0  0
 21 19  1  0  0  0  0
 23 17  2  0  0  0  0
 23 21  1  0  0  0  0
 24 23  1  0  0  0  0
 25 24  2  0  0  0  0
 26 25  1  0  0  0  0
 27 25  1  0  0  0  0
 28 27  1  0  0  0  0
 29 27  2  0  0  0  0
 29 31  1  0  0  0  0
 30 29  1  0  0  0  0
 31 33  2  0  0  0  0
 32 31  1  0  0  0  0
 33 24  1  0  0  0  0
 33 34  1  0  0  0  0
M  END
>  <REMARK>
 35                     

$$$$
mol44.pdb
 OpenBabel11251619293D

 35 37  0  0  0  0  0  0  0  0999 V2000
   40.6020    5.6770   34.3360 C   0  0  0  0  0  0  0  0  0  0  0  0
   40.5740    4.2900   34.1200 C   0  0  0  0  0  0  0  0  0  0  0  0
   40.5590    3.6570   34.9350 H   0  0  0  0  0  0  0  0  0  0  0  0
   40.5660    3.7360   32.8280 C   0  0  0  0  0  0  0  0  0  0  0  0
   40.5190    2.2350   32.6290 C   0  0  0  0  0  0  0  0  0  0  0  0
   40.4930    1.8090   31.4320 O   0  0  0  0  0  0  0  0  0  0  0  0
   40.6120    0.8590   31.5180 H   0  0  0  0  0  0  0  0  0  0  0  0
   40.5060    1.5150   33.6770 O   0  0  0  0  0  0  0  0  0  0  0  0
   40.5920    4.6100   31.7320 C   0  0  0  0  0  0  0  0  0  0  0  0
   40.5860    4.2280   30.7730 H   0  0  0  0  0  0  0  0  0  0  0  0
   40.6260    5.9900   31.9250 C   0  0  0  0  0  0  0  0  0  0  0  0
   40.6480    6.6240   31.1110 H   0  0  0  0  0  0  0  0  0  0  0  0
   40.6300    6.5170   33.2200 C   0  0  0  0  0  0  0  0  0  0  0  0
   40.6540    7.5400   33.3530 H   0  0  0  0  0  0  0  0  0  0  0  0
   40.5380    6.1380   35.6650 N   0  0  0  0  0  0  0  0  0  0  0  0
   40.7990    5.4770   36.3470 H   0  0  0  0  0  0  0  0  0  0  0  0
   40.1690    7.3640   36.1590 C   0  0  0  0  0  0  0  0  0  0  0  0
   40.8080    7.8330   37.4230 C   0  0  0  0  0  0  0  0  0  0  0  0
   40.3080    9.0460   37.7130 N   0  0  0  0  0  0  0  0  0  0  0  0
   40.5940    9.6050   38.4720 H   0  0  0  0  0  0  0  0  0  0  0  0
   39.3610    9.3900   36.8200 C   0  0  0  0  0  0  0  0  0  0  0  0
   38.6980   10.4110   36.8440 O   0  0  0  0  0  0  0  0  0  0  0  0
   39.2590    8.2970   35.8240 C   0  0  0  0  0  0  0  0  0  0  0  0
   38.2740    8.2770   34.7380 C   0  0  0  0  0  0  0  0  0  0  0  0
   38.1070    9.3950   33.9090 C   0  0  0  0  0  0  0  0  0  0  0  0
   38.6710   10.2440   34.0710 H   0  0  0  0  0  0  0  0  0  0  0  0
   37.1810    9.3650   32.8660 C   0  0  0  0  0  0  0  0  0  0  0  0
   37.0060   10.7370   31.8400 Cl  0  0  0  0  0  0  0  0  0  0  0  0
   36.4020    8.2320   32.6410 C   0  0  0  0  0  0  0  0  0  0  0  0
   35.7200    8.2170   31.8670 H   0  0  0  0  0  0  0  0  0  0  0  0
   36.5490    7.1200   33.4670 C   0  0  0  0  0  0  0  0  0  0  0  0
   35.9730    6.2790   33.3080 H   0  0  0  0  0  0  0  0  0  0  0  0
   37.4770    7.1450   34.5110 C   0  0  0  0  0  0  0  0  0  0  0  0
   37.5780    6.3200   35.1230 H   0  0  0  0  0  0  0  0  0  0  0  0
   41.6280    7.2090   38.0730 O   0  0  0  0  0  0  0  0  0  0  0  0
  1 15  1  0  0  0  0
  2  1  1  0  0  0  0
  2  3  1  0  0  0  0
  4  2  2  0  0  0  0
  5  4  1  0  0  0  0
  5  8  2  0  0  0  0
  6  7  1  0  0  0  0
  6  5  1  0  0  0  0
  9 11  2  0  0  0  0
  9  4  1  0  0  0  0
 10  9  1  0  0  0  0
 11 13  1  0  0  0  0
 12 11  1  0  0  0  0
 13 14  1  0  0  0  0
 13  1  2  0  0  0  0
 15 17  1  0  0  0  0
 15 16  1  0  0  0  0
 17 18  1  0  0  0  0
 18 19  1  0  0  0  0
 18 35  2  0  0  0  0
 19 20  1  0  0  0  0
 21 22  2  0  0  0  0
 21 19  1  0  0  0  0
 23 17  2  0  0  0  0
 23 21  1  0  0  0  0
 24 23  1  0  0  0  0
 25 26  1  0  0  0  0
 25 24  2  0  0  0  0
 27 25  1  0  0  0  0
 28 27  1  0  0  0  0
 29 27  2  0  0  0  0
 29 31  1  0  0  0  0
 30 29  1  0  0  0  0
 31 33  2  0  0  0  0
 32 31  1  0  0  0  0
 33 24  1  0  0  0  0
 33 34  1  0  0  0  0
M  END
>  <REMARK>
 35                     

$$$$
mol45.pdb
 OpenBabel11251619293D

 39 41  0  0  0  0  0  0  0  0999 V2000
   40.6300    6.5060   33.2550 C   0  0  0  0  0  0  0  0  0  0  0  0
   40.6260    7.5270   33.4050 H   0  0  0  0  0  0  0  0  0  0  0  0
   40.6960    6.0040   31.9520 C   0  0  0  0  0  0  0  0  0  0  0  0
   40.7400    6.6540   31.1520 H   0  0  0  0  0  0  0  0  0  0  0  0
   40.7020    4.6290   31.7300 C   0  0  0  0  0  0  0  0  0  0  0  0
   40.7490    4.2590   30.7680 H   0  0  0  0  0  0  0  0  0  0  0  0
   40.6440    3.7530   32.8180 C   0  0  0  0  0  0  0  0  0  0  0  0
   40.6410    2.2810   32.6440 C   0  0  0  0  0  0  0  0  0  0  0  0
   40.7310    1.9060   31.3570 O   0  0  0  0  0  0  0  0  0  0  0  0
   40.7240    0.9260   31.3970 H   0  0  0  0  0  0  0  0  0  0  0  0
   40.5710    1.4590   33.5390 O   0  0  0  0  0  0  0  0  0  0  0  0
   40.5780    4.2660   34.1220 C   0  0  0  0  0  0  0  0  0  0  0  0
   40.5350    3.6150   34.9210 H   0  0  0  0  0  0  0  0  0  0  0  0
   40.5690    5.6480   34.3590 C   0  0  0  0  0  0  0  0  0  0  0  0
   40.4450    6.0890   35.6910 N   0  0  0  0  0  0  0  0  0  0  0  0
   41.0780    5.5910   36.3220 H   0  0  0  0  0  0  0  0  0  0  0  0
   40.1200    7.3400   36.1640 C   0  0  0  0  0  0  0  0  0  0  0  0
   40.8100    7.8200   37.3950 C   0  0  0  0  0  0  0  0  0  0  0  0
   40.3590    9.0550   37.6700 N   0  0  0  0  0  0  0  0  0  0  0  0
   40.6470    9.6120   38.4560 H   0  0  0  0  0  0  0  0  0  0  0  0
   39.4010    9.4100   36.7930 C   0  0  0  0  0  0  0  0  0  0  0  0
   38.7750   10.4540   36.8100 O   0  0  0  0  0  0  0  0  0  0  0  0
   39.2330    8.2950   35.8280 C   0  0  0  0  0  0  0  0  0  0  0  0
   38.2350    8.2800   34.7520 C   0  0  0  0  0  0  0  0  0  0  0  0
   38.0600    9.4000   33.9270 C   0  0  0  0  0  0  0  0  0  0  0  0
   38.6220   10.2480   34.0990 H   0  0  0  0  0  0  0  0  0  0  0  0
   37.1380    9.3890   32.8740 C   0  0  0  0  0  0  0  0  0  0  0  0
   37.0960   10.5420   32.1410 O   0  0  0  0  0  0  0  0  0  0  0  0
   36.2170   10.5630   31.0230 C   0  0  0  0  0  0  0  0  0  0  0  0
   36.4980    9.7940   30.3340 H   0  0  0  0  0  0  0  0  0  0  0  0
   35.2140   10.3960   31.3550 H   0  0  0  0  0  0  0  0  0  0  0  0
   36.2790   11.5150   30.5390 H   0  0  0  0  0  0  0  0  0  0  0  0
   36.3650    8.2500   32.6530 C   0  0  0  0  0  0  0  0  0  0  0  0
   35.6820    8.2320   31.8800 H   0  0  0  0  0  0  0  0  0  0  0  0
   36.5150    7.1340   33.4780 C   0  0  0  0  0  0  0  0  0  0  0  0
   35.9380    6.2940   33.3150 H   0  0  0  0  0  0  0  0  0  0  0  0
   37.4410    7.1490   34.5220 C   0  0  0  0  0  0  0  0  0  0  0  0
   37.5420    6.3210   35.1290 H   0  0  0  0  0  0  0  0  0  0  0  0
   41.6320    7.1730   38.0230 O   0  0  0  0  0  0  0  0  0  0  0  0
  1  2  1  0  0  0  0
  1 14  2  0  0  0  0
  3  1  1  0  0  0  0
  4  3  1  0  0  0  0
  5  3  2  0  0  0  0
  5  7  1  0  0  0  0
  6  5  1  0  0  0  0
  7 12  2  0  0  0  0
  8  7  1  0  0  0  0
  8 11  2  0  0  0  0
  9 10  1  0  0  0  0
  9  8  1  0  0  0  0
 12 14  1  0  0  0  0
 12 13  1  0  0  0  0
 14 15  1  0  0  0  0
 15 17  1  0  0  0  0
 15 16  1  0  0  0  0
 17 18  1  0  0  0  0
 18 19  1  0  0  0  0
 18 39  2  0  0  0  0
 19 20  1  0  0  0  0
 21 22  2  0  0  0  0
 21 19  1  0  0  0  0
 23 17  2  0  0  0  0
 23 21  1  0  0  0  0
 24 23  1  0  0  0  0
 25 26  1  0  0  0  0
 25 24  2  0  0  0  0
 27 25  1  0  0  0  0
 28 27  1  0  0  0  0
 29 31  1  0  0  0  0
 29 28  1  0  0  0  0
 30 29  1  0  0  0  0
 32 29  1  0  0  0  0
 33 27  2  0  0  0  0
 33 35  1  0  0  0  0
 34 33  1  0  0  0  0
 35 37  2  0  0  0  0
 36 35  1  0  0  0  0
 37 24  1  0  0  0  0
 37 38  1  0  0  0  0
M  END
>  <REMARK>
 39                     

$$$$
mol46.pdb
 OpenBabel11251619293D

 37 39  0  0  0  0  0  0  0  0999 V2000
   38.2420    8.2900   34.7400 C   0  0  0  0  0  0  0  0  0  0  0  0
   39.2420    8.2970   35.8170 C   0  0  0  0  0  0  0  0  0  0  0  0
   39.4040    9.4090   36.7870 C   0  0  0  0  0  0  0  0  0  0  0  0
   40.3640    9.0560   37.6640 N   0  0  0  0  0  0  0  0  0  0  0  0
   40.6900    9.6240   38.3990 H   0  0  0  0  0  0  0  0  0  0  0  0
   40.8120    7.8200   37.3930 C   0  0  0  0  0  0  0  0  0  0  0  0
   41.6260    7.1700   38.0250 O   0  0  0  0  0  0  0  0  0  0  0  0
   40.1250    7.3410   36.1580 C   0  0  0  0  0  0  0  0  0  0  0  0
   40.4440    6.0870   35.6900 N   0  0  0  0  0  0  0  0  0  0  0  0
   40.6050    5.4050   36.3820 H   0  0  0  0  0  0  0  0  0  0  0  0
   40.5720    5.6420   34.3610 C   0  0  0  0  0  0  0  0  0  0  0  0
   40.5630    4.2580   34.1270 C   0  0  0  0  0  0  0  0  0  0  0  0
   40.5020    3.6090   34.9270 H   0  0  0  0  0  0  0  0  0  0  0  0
   40.6350    3.7420   32.8260 C   0  0  0  0  0  0  0  0  0  0  0  0
   40.6140    2.2690   32.6570 C   0  0  0  0  0  0  0  0  0  0  0  0
   40.7260    1.8880   31.3740 O   0  0  0  0  0  0  0  0  0  0  0  0
   40.7060    0.9080   31.4150 H   0  0  0  0  0  0  0  0  0  0  0  0
   40.5120    1.4520   33.5530 O   0  0  0  0  0  0  0  0  0  0  0  0
   40.7180    4.6140   31.7370 C   0  0  0  0  0  0  0  0  0  0  0  0
   40.7690    4.2410   30.7760 H   0  0  0  0  0  0  0  0  0  0  0  0
   40.7310    5.9900   31.9550 C   0  0  0  0  0  0  0  0  0  0  0  0
   40.7930    6.6370   31.1540 H   0  0  0  0  0  0  0  0  0  0  0  0
   40.6600    6.4970   33.2570 C   0  0  0  0  0  0  0  0  0  0  0  0
   40.6730    7.5180   33.4060 H   0  0  0  0  0  0  0  0  0  0  0  0
   38.7670   10.4460   36.8010 O   0  0  0  0  0  0  0  0  0  0  0  0
   38.0400    9.4300   33.9500 C   0  0  0  0  0  0  0  0  0  0  0  0
   38.5900   10.2850   34.1290 H   0  0  0  0  0  0  0  0  0  0  0  0
   37.0910    9.4100   32.9160 C   0  0  0  0  0  0  0  0  0  0  0  0
   36.9020   10.6020   32.0800 N   0  0  0  0  0  0  0  0  0  0  0  0
   37.6220   11.5850   32.3040 O   0  0  0  0  0  0  0  0  0  0  0  0
   36.0430   10.5500   31.1880 O   0  0  0  0  0  0  0  0  0  0  0  0
   36.3310    8.2620   32.6640 C   0  0  0  0  0  0  0  0  0  0  0  0
   35.6390    8.2530   31.8990 H   0  0  0  0  0  0  0  0  0  0  0  0
   36.5190    7.1320   33.4570 C   0  0  0  0  0  0  0  0  0  0  0  0
   35.9610    6.2810   33.2820 H   0  0  0  0  0  0  0  0  0  0  0  0
   37.4620    7.1490   34.4890 C   0  0  0  0  0  0  0  0  0  0  0  0
   37.5870    6.3100   35.0760 H   0  0  0  0  0  0  0  0  0  0  0  0
  1  2  1  0  0  0  0
  2  8  2  0  0  0  0
  2  3  1  0  0  0  0
  3 25  2  0  0  0  0
  3  4  1  0  0  0  0
  4  5  1  0  0  0  0
  6  4  1  0  0  0  0
  6  7  2  0  0  0  0
  8  6  1  0  0  0  0
  9  8  1  0  0  0  0
  9 10  1  0  0  0  0
 11  9  1  0  0  0  0
 12 11  1  0  0  0  0
 12 13  1  0  0  0  0
 14 12  2  0  0  0  0
 15 14  1  0  0  0  0
 15 18  2  0  0  0  0
 16 17  1  0  0  0  0
 16 15  1  0  0  0  0
 19 21  2  0  0  0  0
 19 14  1  0  0  0  0
 20 19  1  0  0  0  0
 21 23  1  0  0  0  0
 22 21  1  0  0  0  0
 23 24  1  0  0  0  0
 23 11  2  0  0  0  0
 26 27  1  0  0  0  0
 26  1  2  0  0  0  0
 28 26  1  0  0  0  0
 29 30  2  0  0  0  0
 29 28  1  0  0  0  0
 31 29  2  0  0  0  0
 32 28  2  0  0  0  0
 32 34  1  0  0  0  0
 33 32  1  0  0  0  0
 34 36  2  0  0  0  0
 35 34  1  0  0  0  0
 36  1  1  0  0  0  0
 36 37  1  0  0  0  0
M  END
>  <REMARK>
 37                     

$$$$
mol47.pdb
 OpenBabel11251619293D

 35 37  0  0  0  0  0  0  0  0999 V2000
   40.5620    5.6300   34.3650 C   0  0  0  0  0  0  0  0  0  0  0  0
   40.5860    4.2480   34.1290 C   0  0  0  0  0  0  0  0  0  0  0  0
   40.5230    3.5960   34.9270 H   0  0  0  0  0  0  0  0  0  0  0  0
   40.6940    3.7360   32.8280 C   0  0  0  0  0  0  0  0  0  0  0  0
   40.7120    2.2630   32.6560 C   0  0  0  0  0  0  0  0  0  0  0  0
   40.8890    1.8880   31.3770 O   0  0  0  0  0  0  0  0  0  0  0  0
   40.8920    0.9090   31.4170 H   0  0  0  0  0  0  0  0  0  0  0  0
   40.5940    1.4410   33.5450 O   0  0  0  0  0  0  0  0  0  0  0  0
   40.7750    4.6120   31.7420 C   0  0  0  0  0  0  0  0  0  0  0  0
   40.8520    4.2420   30.7820 H   0  0  0  0  0  0  0  0  0  0  0  0
   40.7510    5.9870   31.9630 C   0  0  0  0  0  0  0  0  0  0  0  0
   40.8120    6.6370   31.1640 H   0  0  0  0  0  0  0  0  0  0  0  0
   40.6450    6.4890   33.2630 C   0  0  0  0  0  0  0  0  0  0  0  0
   40.6280    7.5100   33.4130 H   0  0  0  0  0  0  0  0  0  0  0  0
   40.4030    6.0690   35.6950 N   0  0  0  0  0  0  0  0  0  0  0  0
   41.0250    5.5670   36.3360 H   0  0  0  0  0  0  0  0  0  0  0  0
   40.1020    7.3300   36.1580 C   0  0  0  0  0  0  0  0  0  0  0  0
   40.8040    7.8080   37.3840 C   0  0  0  0  0  0  0  0  0  0  0  0
   40.3730    9.0500   37.6510 N   0  0  0  0  0  0  0  0  0  0  0  0
   40.6770    9.6110   38.4300 H   0  0  0  0  0  0  0  0  0  0  0  0
   39.4240    9.4180   36.7690 C   0  0  0  0  0  0  0  0  0  0  0  0
   38.8280   10.4790   36.7690 O   0  0  0  0  0  0  0  0  0  0  0  0
   39.2300    8.2960   35.8150 C   0  0  0  0  0  0  0  0  0  0  0  0
   38.2240    8.2920   34.7450 C   0  0  0  0  0  0  0  0  0  0  0  0
   38.0050    9.4380   33.9660 C   0  0  0  0  0  0  0  0  0  0  0  0
   38.5500   10.2940   34.1540 H   0  0  0  0  0  0  0  0  0  0  0  0
   37.0570    9.4340   32.9380 C   0  0  0  0  0  0  0  0  0  0  0  0
   36.9090   10.2820   32.3690 H   0  0  0  0  0  0  0  0  0  0  0  0
   36.3140    8.2850   32.6840 C   0  0  0  0  0  0  0  0  0  0  0  0
   35.1560    8.2780   31.4110 Cl  0  0  0  0  0  0  0  0  0  0  0  0
   36.5040    7.1420   33.4540 C   0  0  0  0  0  0  0  0  0  0  0  0
   35.9490    6.2920   33.2660 H   0  0  0  0  0  0  0  0  0  0  0  0
   37.4500    7.1490   34.4850 C   0  0  0  0  0  0  0  0  0  0  0  0
   37.5810    6.3030   35.0620 H   0  0  0  0  0  0  0  0  0  0  0  0
   41.6190    7.1530   38.0110 O   0  0  0  0  0  0  0  0  0  0  0  0
  1 15  1  0  0  0  0
  2  1  1  0  0  0  0
  2  3  1  0  0  0  0
  4  2  2  0  0  0  0
  5  4  1  0  0  0  0
  5  8  2  0  0  0  0
  6  7  1  0  0  0  0
  6  5  1  0  0  0  0
  9 11  2  0  0  0  0
  9  4  1  0  0  0  0
 10  9  1  0  0  0  0
 11 13  1  0  0  0  0
 12 11  1  0  0  0  0
 13 14  1  0  0  0  0
 13  1  2  0  0  0  0
 15 17  1  0  0  0  0
 15 16  1  0  0  0  0
 17 18  1  0  0  0  0
 18 19  1  0  0  0  0
 18 35  2  0  0  0  0
 19 20  1  0  0  0  0
 21 22  2  0  0  0  0
 21 19  1  0  0  0  0
 23 17  2  0  0  0  0
 23 21  1  0  0  0  0
 24 23  1  0  0  0  0
 25 26  1  0  0  0  0
 25 24  2  0  0  0  0
 27 25  1  0  0  0  0
 28 27  1  0  0  0  0
 29 27  2  0  0  0  0
 29 31  1  0  0  0  0
 30 29  1  0  0  0  0
 31 33  2  0  0  0  0
 32 31  1  0  0  0  0
 33 24  1  0  0  0  0
 33 34  1  0  0  0  0
M  END
>  <REMARK>
 35                     

$$$$
mol48.pdb
 OpenBabel11251619293D

 39 41  0  0  0  0  0  0  0  0999 V2000
   40.5450    5.6300   34.3730 C   0  0  0  0  0  0  0  0  0  0  0  0
   40.5350    4.2510   34.1160 C   0  0  0  0  0  0  0  0  0  0  0  0
   40.4350    3.5890   34.9020 H   0  0  0  0  0  0  0  0  0  0  0  0
   40.6590    3.7560   32.8090 C   0  0  0  0  0  0  0  0  0  0  0  0
   40.6300    2.2870   32.6120 C   0  0  0  0  0  0  0  0  0  0  0  0
   40.8070    1.9290   31.3290 O   0  0  0  0  0  0  0  0  0  0  0  0
   40.7740    0.9500   31.3520 H   0  0  0  0  0  0  0  0  0  0  0  0
   40.4720    1.4550   33.4860 O   0  0  0  0  0  0  0  0  0  0  0  0
   40.7970    4.6460   31.7410 C   0  0  0  0  0  0  0  0  0  0  0  0
   40.8900    4.2880   30.7770 H   0  0  0  0  0  0  0  0  0  0  0  0
   40.8080    6.0180   31.9820 C   0  0  0  0  0  0  0  0  0  0  0  0
   40.9090    6.6780   31.1950 H   0  0  0  0  0  0  0  0  0  0  0  0
   40.6830    6.5030   33.2880 C   0  0  0  0  0  0  0  0  0  0  0  0
   40.6930    7.5210   33.4540 H   0  0  0  0  0  0  0  0  0  0  0  0
   40.3720    6.0550   35.7060 N   0  0  0  0  0  0  0  0  0  0  0  0
   40.9960    5.5510   36.3440 H   0  0  0  0  0  0  0  0  0  0  0  0
   40.0900    7.3230   36.1660 C   0  0  0  0  0  0  0  0  0  0  0  0
   40.8070    7.8040   37.3800 C   0  0  0  0  0  0  0  0  0  0  0  0
   40.3940    9.0540   37.6370 N   0  0  0  0  0  0  0  0  0  0  0  0
   40.7120    9.6210   38.4050 H   0  0  0  0  0  0  0  0  0  0  0  0
   39.4430    9.4260   36.7570 C   0  0  0  0  0  0  0  0  0  0  0  0
   38.8640   10.4970   36.7490 O   0  0  0  0  0  0  0  0  0  0  0  0
   39.2270    8.2960   35.8180 C   0  0  0  0  0  0  0  0  0  0  0  0
   38.2180    8.2870   34.7510 C   0  0  0  0  0  0  0  0  0  0  0  0
   37.9950    9.4230   33.9650 C   0  0  0  0  0  0  0  0  0  0  0  0
   38.5350   10.2830   34.1460 H   0  0  0  0  0  0  0  0  0  0  0  0
   37.0470    9.4040   32.9370 C   0  0  0  0  0  0  0  0  0  0  0  0
   36.8980   10.2510   32.3660 H   0  0  0  0  0  0  0  0  0  0  0  0
   36.3010    8.2560   32.6730 C   0  0  0  0  0  0  0  0  0  0  0  0
   35.4210    8.3670   31.6340 O   0  0  0  0  0  0  0  0  0  0  0  0
   34.6860    7.2010   31.2850 C   0  0  0  0  0  0  0  0  0  0  0  0
   35.3640    6.4220   31.0060 H   0  0  0  0  0  0  0  0  0  0  0  0
   34.1030    6.8830   32.1240 H   0  0  0  0  0  0  0  0  0  0  0  0
   34.0380    7.4210   30.4630 H   0  0  0  0  0  0  0  0  0  0  0  0
   36.4990    7.1250   33.4630 C   0  0  0  0  0  0  0  0  0  0  0  0
   35.9470    6.2710   33.2860 H   0  0  0  0  0  0  0  0  0  0  0  0
   37.4440    7.1440   34.4960 C   0  0  0  0  0  0  0  0  0  0  0  0
   37.5740    6.3030   35.0800 H   0  0  0  0  0  0  0  0  0  0  0  0
   41.6200    7.1460   38.0080 O   0  0  0  0  0  0  0  0  0  0  0  0
  1 15  1  0  0  0  0
  2  1  1  0  0  0  0
  2  3  1  0  0  0  0
  4  2  2  0  0  0  0
  5  4  1  0  0  0  0
  5  8  2  0  0  0  0
  6  7  1  0  0  0  0
  6  5  1  0  0  0  0
  9 11  2  0  0  0  0
  9  4  1  0  0  0  0
 10  9  1  0  0  0  0
 11 13  1  0  0  0  0
 12 11  1  0  0  0  0
 13 14  1  0  0  0  0
 13  1  2  0  0  0  0
 15 17  1  0  0  0  0
 15 16  1  0  0  0  0
 17 18  1  0  0  0  0
 18 19  1  0  0  0  0
 18 39  2  0  0  0  0
 19 20  1  0  0  0  0
 21 19  1  0  0  0  0
 22 21  2  0  0  0  0
 23 17  2  0  0  0  0
 23 21  1  0  0  0  0
 24 23  1  0  0  0  0
 25 26  1  0  0  0  0
 25 24  2  0  0  0  0
 27 25  1  0  0  0  0
 28 27  1  0  0  0  0
 29 27  2  0  0  0  0
 29 35  1  0  0  0  0
 30 29  1  0  0  0  0
 31 30  1  0  0  0  0
 31 33  1  0  0  0  0
 32 31  1  0  0  0  0
 34 31  1  0  0  0  0
 35 37  2  0  0  0  0
 36 35  1  0  0  0  0
 37 24  1  0  0  0  0
 37 38  1  0  0  0  0
M  END
>  <REMARK>
 39                     

$$$$
mol49.pdb
 OpenBabel11251619293D

 35 37  0  0  0  0  0  0  0  0999 V2000
   40.5580    5.6310   34.3730 C   0  0  0  0  0  0  0  0  0  0  0  0
   40.5570    4.2540   34.1120 C   0  0  0  0  0  0  0  0  0  0  0  0
   40.4640    3.5970   34.9030 H   0  0  0  0  0  0  0  0  0  0  0  0
   40.6790    3.7330   32.8040 C   0  0  0  0  0  0  0  0  0  0  0  0
   40.6390    2.2500   32.7130 C   0  0  0  0  0  0  0  0  0  0  0  0
   40.9660    1.7340   31.5230 O   0  0  0  0  0  0  0  0  0  0  0  0
   40.8870    0.7650   31.6400 H   0  0  0  0  0  0  0  0  0  0  0  0
   40.3660    1.5090   33.6430 O   0  0  0  0  0  0  0  0  0  0  0  0
   40.8020    4.6280   31.7350 C   0  0  0  0  0  0  0  0  0  0  0  0
   40.9180    4.1770   30.0710 Cl  0  0  0  0  0  0  0  0  0  0  0  0
   40.8100    6.0050   31.9880 C   0  0  0  0  0  0  0  0  0  0  0  0
   40.9080    6.6650   31.2010 H   0  0  0  0  0  0  0  0  0  0  0  0
   40.6880    6.5000   33.2900 C   0  0  0  0  0  0  0  0  0  0  0  0
   40.6940    7.5190   33.4510 H   0  0  0  0  0  0  0  0  0  0  0  0
   40.3750    6.0560   35.7040 N   0  0  0  0  0  0  0  0  0  0  0  0
   40.9830    5.5460   36.3520 H   0  0  0  0  0  0  0  0  0  0  0  0
   40.0890    7.3220   36.1630 C   0  0  0  0  0  0  0  0  0  0  0  0
   40.8000    7.8020   37.3810 C   0  0  0  0  0  0  0  0  0  0  0  0
   40.3840    9.0510   37.6390 N   0  0  0  0  0  0  0  0  0  0  0  0
   40.7020    9.6180   38.4060 H   0  0  0  0  0  0  0  0  0  0  0  0
   39.4390    9.4250   36.7530 C   0  0  0  0  0  0  0  0  0  0  0  0
   38.8660   10.4980   36.7400 O   0  0  0  0  0  0  0  0  0  0  0  0
   39.2250    8.2950   35.8130 C   0  0  0  0  0  0  0  0  0  0  0  0
   38.2170    8.2870   34.7450 C   0  0  0  0  0  0  0  0  0  0  0  0
   37.9980    9.4280   33.9600 C   0  0  0  0  0  0  0  0  0  0  0  0
   38.5490   10.2820   34.1370 H   0  0  0  0  0  0  0  0  0  0  0  0
   37.0410    9.4210   32.9400 C   0  0  0  0  0  0  0  0  0  0  0  0
   36.8940   10.2660   32.3670 H   0  0  0  0  0  0  0  0  0  0  0  0
   36.2870    8.2770   32.6960 C   0  0  0  0  0  0  0  0  0  0  0  0
   35.5850    8.2720   31.9400 H   0  0  0  0  0  0  0  0  0  0  0  0
   36.4830    7.1400   33.4750 C   0  0  0  0  0  0  0  0  0  0  0  0
   35.9240    6.2910   33.2980 H   0  0  0  0  0  0  0  0  0  0  0  0
   37.4360    7.1480   34.4970 C   0  0  0  0  0  0  0  0  0  0  0  0
   37.5670    6.3050   35.0770 H   0  0  0  0  0  0  0  0  0  0  0  0
   41.6130    7.1440   38.0080 O   0  0  0  0  0  0  0  0  0  0  0  0
  1 15  1  0  0  0  0
  2  1  1  0  0  0  0
  2  3  1  0  0  0  0
  4  2  2  0  0  0  0
  5  4  1  0  0  0  0
  5  8  2  0  0  0  0
  6  7  1  0  0  0  0
  6  5  1  0  0  0  0
  9 11  2  0  0  0  0
  9  4  1  0  0  0  0
 10  9  1  0  0  0  0
 11 13  1  0  0  0  0
 12 11  1  0  0  0  0
 13 14  1  0  0  0  0
 13  1  2  0  0  0  0
 15 17  1  0  0  0  0
 15 16  1  0  0  0  0
 17 18  1  0  0  0  0
 18 19  1  0  0  0  0
 18 35  2  0  0  0  0
 19 20  1  0  0  0  0
 21 19  1  0  0  0  0
 22 21  2  0  0  0  0
 23 17  2  0  0  0  0
 23 21  1  0  0  0  0
 24 23  1  0  0  0  0
 25 26  1  0  0  0  0
 25 24  2  0  0  0  0
 27 25  1  0  0  0  0
 28 27  1  0  0  0  0
 29 27  2  0  0  0  0
 29 31  1  0  0  0  0
 30 29  1  0  0  0  0
 31 33  2  0  0  0  0
 32 31  1  0  0  0  0
 33 24  1  0  0  0  0
 33 34  1  0  0  0  0
M  END
>  <REMARK>
 35                     

$$$$
mol50.pdb
 OpenBabel11251619293D

 35 37  0  0  0  0  0  0  0  0999 V2000
   40.5650    5.6540   34.3400 C   0  0  0  0  0  0  0  0  0  0  0  0
   40.5400    4.2720   34.1020 C   0  0  0  0  0  0  0  0  0  0  0  0
   40.4480    3.6260   34.9010 H   0  0  0  0  0  0  0  0  0  0  0  0
   40.6370    3.7440   32.8020 C   0  0  0  0  0  0  0  0  0  0  0  0
   40.6100    2.2710   32.7000 C   0  0  0  0  0  0  0  0  0  0  0  0
   39.9310    1.8210   31.6340 O   0  0  0  0  0  0  0  0  0  0  0  0
   39.9770    0.8450   31.7050 H   0  0  0  0  0  0  0  0  0  0  0  0
   41.0520    1.5060   33.5380 O   0  0  0  0  0  0  0  0  0  0  0  0
   40.7830    4.6110   31.7170 C   0  0  0  0  0  0  0  0  0  0  0  0
   41.0330    4.0860   30.0910 Cl  0  0  0  0  0  0  0  0  0  0  0  0
   40.7970    5.9910   31.9420 C   0  0  0  0  0  0  0  0  0  0  0  0
   40.8920    6.6370   31.1430 H   0  0  0  0  0  0  0  0  0  0  0  0
   40.6840    6.5050   33.2390 C   0  0  0  0  0  0  0  0  0  0  0  0
   40.6890    7.5270   33.3840 H   0  0  0  0  0  0  0  0  0  0  0  0
   40.4420    6.1000   35.6670 N   0  0  0  0  0  0  0  0  0  0  0  0
   41.0630    5.5920   36.3050 H   0  0  0  0  0  0  0  0  0  0  0  0
   40.1420    7.3570   36.1370 C   0  0  0  0  0  0  0  0  0  0  0  0
   40.8200    7.8260   37.3790 C   0  0  0  0  0  0  0  0  0  0  0  0
   40.3890    9.0700   37.6430 N   0  0  0  0  0  0  0  0  0  0  0  0
   40.6240    9.5890   38.4720 H   0  0  0  0  0  0  0  0  0  0  0  0
   39.3770    9.3940   36.8150 C   0  0  0  0  0  0  0  0  0  0  0  0
   38.6350   10.3520   36.9330 O   0  0  0  0  0  0  0  0  0  0  0  0
   39.2660    8.3200   35.7980 C   0  0  0  0  0  0  0  0  0  0  0  0
   38.2690    8.3180   34.7230 C   0  0  0  0  0  0  0  0  0  0  0  0
   38.1920    9.3370   33.7570 C   0  0  0  0  0  0  0  0  0  0  0  0
   39.3420   10.6280   33.6860 Cl  0  0  0  0  0  0  0  0  0  0  0  0
   37.2060    9.3040   32.7650 C   0  0  0  0  0  0  0  0  0  0  0  0
   37.1530   10.0620   32.0670 H   0  0  0  0  0  0  0  0  0  0  0  0
   36.2940    8.2500   32.7170 C   0  0  0  0  0  0  0  0  0  0  0  0
   35.5660    8.2290   31.9860 H   0  0  0  0  0  0  0  0  0  0  0  0
   36.3680    7.2260   33.6570 C   0  0  0  0  0  0  0  0  0  0  0  0
   35.7010    6.4400   33.6160 H   0  0  0  0  0  0  0  0  0  0  0  0
   37.3440    7.2610   34.6550 C   0  0  0  0  0  0  0  0  0  0  0  0
   37.3870    6.5010   35.3520 H   0  0  0  0  0  0  0  0  0  0  0  0
   41.5990    7.1520   38.0320 O   0  0  0  0  0  0  0  0  0  0  0  0
  1 15  1  0  0  0  0
  2  1  1  0  0  0  0
  2  3  1  0  0  0  0
  4  2  2  0  0  0  0
  5  4  1  0  0  0  0
  5  8  2  0  0  0  0
  6  7  1  0  0  0  0
  6  5  1  0  0  0  0
  9 11  2  0  0  0  0
  9  4  1  0  0  0  0
 10  9  1  0  0  0  0
 11 13  1  0  0  0  0
 12 11  1  0  0  0  0
 13 14  1  0  0  0  0
 13  1  2  0  0  0  0
 15 17  1  0  0  0  0
 15 16  1  0  0  0  0
 17 18  1  0  0  0  0
 18 19  1  0  0  0  0
 18 35  2  0  0  0  0
 19 20  1  0  0  0  0
 21 22  2  0  0  0  0
 21 19  1  0  0  0  0
 23 17  2  0  0  0  0
 23 21  1  0  0  0  0
 24 23  1  0  0  0  0
 25 24  2  0  0  0  0
 26 25  1  0  0  0  0
 27 25  1  0  0  0  0
 28 27  1  0  0  0  0
 29 27  2  0  0  0  0
 29 31  1  0  0  0  0
 30 29  1  0  0  0  0
 31 33  2  0  0  0  0
 32 31  1  0  0  0  0
 33 24  1  0  0  0  0
 33 34  1  0  0  0  0
M  END
>  <REMARK>
 35                     

$$$$
mol51.pdb
 OpenBabel11251619293D

 37 39  0  0  0  0  0  0  0  0999 V2000
   40.7180    6.5040   33.2500 C   0  0  0  0  0  0  0  0  0  0  0  0
   40.7590    7.5240   33.4000 H   0  0  0  0  0  0  0  0  0  0  0  0
   40.8050    5.9940   31.9500 C   0  0  0  0  0  0  0  0  0  0  0  0
   40.9120    6.6410   31.1530 H   0  0  0  0  0  0  0  0  0  0  0  0
   40.7480    4.6160   31.7200 C   0  0  0  0  0  0  0  0  0  0  0  0
   40.9550    4.0820   30.0910 Cl  0  0  0  0  0  0  0  0  0  0  0  0
   40.5920    3.7500   32.8040 C   0  0  0  0  0  0  0  0  0  0  0  0
   40.5280    2.2820   32.6870 C   0  0  0  0  0  0  0  0  0  0  0  0
   39.7250    1.8720   31.6940 O   0  0  0  0  0  0  0  0  0  0  0  0
   39.7500    0.8930   31.7430 H   0  0  0  0  0  0  0  0  0  0  0  0
   41.0380    1.4960   33.4650 O   0  0  0  0  0  0  0  0  0  0  0  0
   40.5220    4.2720   34.1080 C   0  0  0  0  0  0  0  0  0  0  0  0
   40.4280    3.6250   34.9060 H   0  0  0  0  0  0  0  0  0  0  0  0
   40.5770    5.6520   34.3480 C   0  0  0  0  0  0  0  0  0  0  0  0
   40.4650    6.0970   35.6760 N   0  0  0  0  0  0  0  0  0  0  0  0
   40.6340    5.4160   36.3660 H   0  0  0  0  0  0  0  0  0  0  0  0
   40.1520    7.3510   36.1470 C   0  0  0  0  0  0  0  0  0  0  0  0
   40.8150    7.8190   37.4000 C   0  0  0  0  0  0  0  0  0  0  0  0
   40.3600    9.0530   37.6730 N   0  0  0  0  0  0  0  0  0  0  0  0
   40.6900    9.6260   38.4020 H   0  0  0  0  0  0  0  0  0  0  0  0
   39.3890    9.3920   36.8070 C   0  0  0  0  0  0  0  0  0  0  0  0
   38.6780   10.3790   36.8560 O   0  0  0  0  0  0  0  0  0  0  0  0
   39.2770    8.3110   35.7990 C   0  0  0  0  0  0  0  0  0  0  0  0
   38.2910    8.3210   34.7090 C   0  0  0  0  0  0  0  0  0  0  0  0
   38.1250    9.3790   33.7910 C   0  0  0  0  0  0  0  0  0  0  0  0
   39.0390   10.5210   33.7660 N   0  0  0  0  0  0  0  0  0  0  0  0
   38.5600   11.6320   33.5020 O   0  0  0  0  0  0  0  0  0  0  0  0
   40.2450   10.2890   33.9440 O   0  0  0  0  0  0  0  0  0  0  0  0
   37.1230    9.3460   32.8040 C   0  0  0  0  0  0  0  0  0  0  0  0
   37.0170   10.1340   32.1470 H   0  0  0  0  0  0  0  0  0  0  0  0
   36.2750    8.2450   32.7180 C   0  0  0  0  0  0  0  0  0  0  0  0
   35.5390    8.2140   31.9960 H   0  0  0  0  0  0  0  0  0  0  0  0
   36.4230    7.1860   33.6090 C   0  0  0  0  0  0  0  0  0  0  0  0
   35.7990    6.3670   33.5410 H   0  0  0  0  0  0  0  0  0  0  0  0
   37.4140    7.2260   34.5970 C   0  0  0  0  0  0  0  0  0  0  0  0
   37.5030    6.4370   35.2560 H   0  0  0  0  0  0  0  0  0  0  0  0
   41.6000    7.1530   38.0500 O   0  0  0  0  0  0  0  0  0  0  0  0
  1  2  1  0  0  0  0
  1 14  2  0  0  0  0
  3  1  1  0  0  0  0
  4  3  1  0  0  0  0
  5  3  2  0  0  0  0
  5  7  1  0  0  0  0
  6  5  1  0  0  0  0
  7 12  2  0  0  0  0
  8  7  1  0  0  0  0
  8 11  2  0  0  0  0
  9 10  1  0  0  0  0
  9  8  1  0  0  0  0
 12 14  1  0  0  0  0
 12 13  1  0  0  0  0
 14 15  1  0  0  0  0
 15 17  1  0  0  0  0
 15 16  1  0  0  0  0
 17 18  1  0  0  0  0
 18 19  1  0  0  0  0
 18 37  2  0  0  0  0
 19 20  1  0  0  0  0
 21 22  2  0  0  0  0
 21 19  1  0  0  0  0
 23 17  2  0  0  0  0
 23 21  1  0  0  0  0
 24 23  1  0  0  0  0
 25 24  2  0  0  0  0
 26 25  1  0  0  0  0
 26 28  2  0  0  0  0
 27 26  2  0  0  0  0
 29 25  1  0  0  0  0
 30 29  1  0  0  0  0
 31 29  2  0  0  0  0
 31 33  1  0  0  0  0
 32 31  1  0  0  0  0
 33 35  2  0  0  0  0
 34 33  1  0  0  0  0
 35 24  1  0  0  0  0
 35 36  1  0  0  0  0
M  END
>  <REMARK>
 37                     

$$$$
mol52.pdb
 OpenBabel11251619293D

 35 37  0  0  0  0  0  0  0  0999 V2000
   40.6130    5.6730   34.3530 C   0  0  0  0  0  0  0  0  0  0  0  0
   40.5380    4.2910   34.1400 C   0  0  0  0  0  0  0  0  0  0  0  0
   40.5250    3.6530   34.9510 H   0  0  0  0  0  0  0  0  0  0  0  0
   40.4800    3.7590   32.8420 C   0  0  0  0  0  0  0  0  0  0  0  0
   40.3540    2.2980   32.7350 C   0  0  0  0  0  0  0  0  0  0  0  0
   39.3040    1.9450   31.9750 O   0  0  0  0  0  0  0  0  0  0  0  0
   39.2840    0.9660   32.0190 H   0  0  0  0  0  0  0  0  0  0  0  0
   41.0070    1.4860   33.3600 O   0  0  0  0  0  0  0  0  0  0  0  0
   40.5440    4.6060   31.7350 C   0  0  0  0  0  0  0  0  0  0  0  0
   40.5710    4.0330   30.1070 Cl  0  0  0  0  0  0  0  0  0  0  0  0
   40.6400    5.9840   31.9370 C   0  0  0  0  0  0  0  0  0  0  0  0
   40.6910    6.6190   31.1250 H   0  0  0  0  0  0  0  0  0  0  0  0
   40.6670    6.5100   33.2350 C   0  0  0  0  0  0  0  0  0  0  0  0
   40.7280    7.5320   33.3680 H   0  0  0  0  0  0  0  0  0  0  0  0
   40.5660    6.1410   35.6750 N   0  0  0  0  0  0  0  0  0  0  0  0
   41.2080    5.6520   36.3050 H   0  0  0  0  0  0  0  0  0  0  0  0
   40.1770    7.3680   36.1620 C   0  0  0  0  0  0  0  0  0  0  0  0
   40.8200    7.8480   37.4200 C   0  0  0  0  0  0  0  0  0  0  0  0
   40.3080    9.0530   37.7150 N   0  0  0  0  0  0  0  0  0  0  0  0
   40.5530    9.6010   38.5220 H   0  0  0  0  0  0  0  0  0  0  0  0
   39.3540    9.3870   36.8260 C   0  0  0  0  0  0  0  0  0  0  0  0
   38.6810   10.4010   36.8510 O   0  0  0  0  0  0  0  0  0  0  0  0
   39.2570    8.2920   35.8270 C   0  0  0  0  0  0  0  0  0  0  0  0
   38.2770    8.2710   34.7340 C   0  0  0  0  0  0  0  0  0  0  0  0
   38.0490    9.4190   33.9620 C   0  0  0  0  0  0  0  0  0  0  0  0
   38.5630   10.2890   34.1720 H   0  0  0  0  0  0  0  0  0  0  0  0
   37.1300    9.3920   32.9110 C   0  0  0  0  0  0  0  0  0  0  0  0
   36.8750   10.8080   31.9650 Cl  0  0  0  0  0  0  0  0  0  0  0  0
   36.4240    8.2300   32.6150 C   0  0  0  0  0  0  0  0  0  0  0  0
   35.7540    8.2150   31.8300 H   0  0  0  0  0  0  0  0  0  0  0  0
   36.6270    7.0870   33.3850 C   0  0  0  0  0  0  0  0  0  0  0  0
   36.1040    6.2230   33.1740 H   0  0  0  0  0  0  0  0  0  0  0  0
   37.5400    7.1110   34.4430 C   0  0  0  0  0  0  0  0  0  0  0  0
   37.6750    6.2650   35.0180 H   0  0  0  0  0  0  0  0  0  0  0  0
   41.6560    7.2210   38.0480 O   0  0  0  0  0  0  0  0  0  0  0  0
  1 15  1  0  0  0  0
  2  1  1  0  0  0  0
  2  3  1  0  0  0  0
  4  2  2  0  0  0  0
  5  4  1  0  0  0  0
  5  8  2  0  0  0  0
  6  7  1  0  0  0  0
  6  5  1  0  0  0  0
  9 11  2  0  0  0  0
  9  4  1  0  0  0  0
 10  9  1  0  0  0  0
 11 13  1  0  0  0  0
 12 11  1  0  0  0  0
 13 14  1  0  0  0  0
 13  1  2  0  0  0  0
 15 17  1  0  0  0  0
 15 16  1  0  0  0  0
 17 18  1  0  0  0  0
 18 19  1  0  0  0  0
 18 35  2  0  0  0  0
 19 20  1  0  0  0  0
 21 22  2  0  0  0  0
 21 19  1  0  0  0  0
 23 17  2  0  0  0  0
 23 21  1  0  0  0  0
 24 23  1  0  0  0  0
 25 26  1  0  0  0  0
 25 24  2  0  0  0  0
 27 25  1  0  0  0  0
 28 27  1  0  0  0  0
 29 27  2  0  0  0  0
 29 31  1  0  0  0  0
 30 29  1  0  0  0  0
 31 33  2  0  0  0  0
 32 31  1  0  0  0  0
 33 24  1  0  0  0  0
 33 34  1  0  0  0  0
M  END
>  <REMARK>
 35                     

$$$$
mol53.pdb
 OpenBabel11251619293D

 39 41  0  0  0  0  0  0  0  0999 V2000
   40.6750    6.5170   33.2660 C   0  0  0  0  0  0  0  0  0  0  0  0
   40.6770    7.5360   33.4260 H   0  0  0  0  0  0  0  0  0  0  0  0
   40.7950    6.0250   31.9610 C   0  0  0  0  0  0  0  0  0  0  0  0
   40.8950    6.6840   31.1730 H   0  0  0  0  0  0  0  0  0  0  0  0
   40.7810    4.6490   31.7170 C   0  0  0  0  0  0  0  0  0  0  0  0
   41.0220    4.1340   30.0860 Cl  0  0  0  0  0  0  0  0  0  0  0  0
   40.6330    3.7690   32.7900 C   0  0  0  0  0  0  0  0  0  0  0  0
   40.5990    2.3020   32.6500 C   0  0  0  0  0  0  0  0  0  0  0  0
   39.7780    1.8970   31.6680 O   0  0  0  0  0  0  0  0  0  0  0  0
   39.8140    0.9190   31.7030 H   0  0  0  0  0  0  0  0  0  0  0  0
   41.1370    1.5130   33.4030 O   0  0  0  0  0  0  0  0  0  0  0  0
   40.5360    4.2710   34.0990 C   0  0  0  0  0  0  0  0  0  0  0  0
   40.4510    3.6110   34.8880 H   0  0  0  0  0  0  0  0  0  0  0  0
   40.5520    5.6500   34.3560 C   0  0  0  0  0  0  0  0  0  0  0  0
   40.4030    6.0750   35.6890 N   0  0  0  0  0  0  0  0  0  0  0  0
   41.0220    5.5670   36.3270 H   0  0  0  0  0  0  0  0  0  0  0  0
   40.1100    7.3370   36.1580 C   0  0  0  0  0  0  0  0  0  0  0  0
   40.8010    7.8090   37.3920 C   0  0  0  0  0  0  0  0  0  0  0  0
   40.3770    9.0560   37.6530 N   0  0  0  0  0  0  0  0  0  0  0  0
   40.6630    9.6070   38.4440 H   0  0  0  0  0  0  0  0  0  0  0  0
   39.4220    9.4210   36.7760 C   0  0  0  0  0  0  0  0  0  0  0  0
   38.8050   10.4710   36.7880 O   0  0  0  0  0  0  0  0  0  0  0  0
   39.2400    8.3040   35.8160 C   0  0  0  0  0  0  0  0  0  0  0  0
   38.2330    8.2840   34.7520 C   0  0  0  0  0  0  0  0  0  0  0  0
   38.0860    9.3700   33.8790 C   0  0  0  0  0  0  0  0  0  0  0  0
   38.6810   10.2040   34.0030 H   0  0  0  0  0  0  0  0  0  0  0  0
   37.1460    9.3430   32.8420 C   0  0  0  0  0  0  0  0  0  0  0  0
   37.1320   10.4610   32.0530 O   0  0  0  0  0  0  0  0  0  0  0  0
   36.2760   10.4330   30.9170 C   0  0  0  0  0  0  0  0  0  0  0  0
   36.5640    9.6280   30.2740 H   0  0  0  0  0  0  0  0  0  0  0  0
   35.2650   10.2910   31.2360 H   0  0  0  0  0  0  0  0  0  0  0  0
   36.3560   11.3590   30.3870 H   0  0  0  0  0  0  0  0  0  0  0  0
   36.3220    8.2280   32.6930 C   0  0  0  0  0  0  0  0  0  0  0  0
   35.6220    8.2020   31.9350 H   0  0  0  0  0  0  0  0  0  0  0  0
   36.4430    7.1480   33.5680 C   0  0  0  0  0  0  0  0  0  0  0  0
   35.8280    6.3260   33.4590 H   0  0  0  0  0  0  0  0  0  0  0  0
   37.3920    7.1750   34.5890 C   0  0  0  0  0  0  0  0  0  0  0  0
   37.4760    6.3710   35.2310 H   0  0  0  0  0  0  0  0  0  0  0  0
   41.5960    7.1430   38.0330 O   0  0  0  0  0  0  0  0  0  0  0  0
  1  2  1  0  0  0  0
  1 14  2  0  0  0  0
  3  1  1  0  0  0  0
  4  3  1  0  0  0  0
  5  3  2  0  0  0  0
  5  7  1  0  0  0  0
  6  5  1  0  0  0  0
  7 12  2  0  0  0  0
  8  7  1  0  0  0  0
  8 11  2  0  0  0  0
  9 10  1  0  0  0  0
  9  8  1  0  0  0  0
 12 14  1  0  0  0  0
 12 13  1  0  0  0  0
 14 15  1  0  0  0  0
 15 17  1  0  0  0  0
 15 16  1  0  0  0  0
 17 18  1  0  0  0  0
 18 19  1  0  0  0  0
 18 39  2  0  0  0  0
 19 20  1  0  0  0  0
 21 22  2  0  0  0  0
 21 19  1  0  0  0  0
 23 17  2  0  0  0  0
 23 21  1  0  0  0  0
 24 23  1  0  0  0  0
 25 26  1  0  0  0  0
 25 24  2  0  0  0  0
 27 25  1  0  0  0  0
 28 27  1  0  0  0  0
 29 31  1  0  0  0  0
 29 28  1  0  0  0  0
 30 29  1  0  0  0  0
 32 29  1  0  0  0  0
 33 27  2  0  0  0  0
 33 35  1  0  0  0  0
 34 33  1  0  0  0  0
 35 37  2  0  0  0  0
 36 35  1  0  0  0  0
 37 24  1  0  0  0  0
 37 38  1  0  0  0  0
M  END
>  <REMARK>
 39                     

$$$$
mol54.pdb
 OpenBabel11251619293D

 37 39  0  0  0  0  0  0  0  0999 V2000
   40.6870    6.5140   33.2830 C   0  0  0  0  0  0  0  0  0  0  0  0
   40.7010    7.5320   33.4490 H   0  0  0  0  0  0  0  0  0  0  0  0
   40.8080    6.0280   31.9760 C   0  0  0  0  0  0  0  0  0  0  0  0
   40.9150    6.6900   31.1920 H   0  0  0  0  0  0  0  0  0  0  0  0
   40.7850    4.6540   31.7240 C   0  0  0  0  0  0  0  0  0  0  0  0
   41.0290    4.1470   30.0930 Cl  0  0  0  0  0  0  0  0  0  0  0  0
   40.6280    3.7690   32.7930 C   0  0  0  0  0  0  0  0  0  0  0  0
   40.5890    2.3040   32.6430 C   0  0  0  0  0  0  0  0  0  0  0  0
   39.7620    1.9100   31.6630 O   0  0  0  0  0  0  0  0  0  0  0  0
   39.7990    0.9300   31.6840 H   0  0  0  0  0  0  0  0  0  0  0  0
   41.1300    1.5090   33.3880 O   0  0  0  0  0  0  0  0  0  0  0  0
   40.5260    4.2650   34.1040 C   0  0  0  0  0  0  0  0  0  0  0  0
   40.4330    3.6020   34.8900 H   0  0  0  0  0  0  0  0  0  0  0  0
   40.5480    5.6420   34.3660 C   0  0  0  0  0  0  0  0  0  0  0  0
   40.3940    6.0650   35.7000 N   0  0  0  0  0  0  0  0  0  0  0  0
   40.5090    5.3690   36.3870 H   0  0  0  0  0  0  0  0  0  0  0  0
   40.1030    7.3280   36.1660 C   0  0  0  0  0  0  0  0  0  0  0  0
   40.8080    7.8100   37.3880 C   0  0  0  0  0  0  0  0  0  0  0  0
   40.3800    9.0570   37.6470 N   0  0  0  0  0  0  0  0  0  0  0  0
   40.7160    9.6260   38.3770 H   0  0  0  0  0  0  0  0  0  0  0  0
   39.4270    9.4180   36.7680 C   0  0  0  0  0  0  0  0  0  0  0  0
   38.8170   10.4720   36.7620 O   0  0  0  0  0  0  0  0  0  0  0  0
   39.2340    8.2940   35.8200 C   0  0  0  0  0  0  0  0  0  0  0  0
   38.2300    8.2820   34.7500 C   0  0  0  0  0  0  0  0  0  0  0  0
   38.0690    9.3930   33.9100 C   0  0  0  0  0  0  0  0  0  0  0  0
   38.6520   10.2330   34.0490 H   0  0  0  0  0  0  0  0  0  0  0  0
   37.1160    9.3640   32.8800 C   0  0  0  0  0  0  0  0  0  0  0  0
   36.9740   10.5210   31.9880 N   0  0  0  0  0  0  0  0  0  0  0  0
   37.7500   11.4730   32.1500 O   0  0  0  0  0  0  0  0  0  0  0  0
   36.0980   10.4710   31.1140 O   0  0  0  0  0  0  0  0  0  0  0  0
   36.3080    8.2370   32.6840 C   0  0  0  0  0  0  0  0  0  0  0  0
   35.6110    8.2210   31.9230 H   0  0  0  0  0  0  0  0  0  0  0  0
   36.4550    7.1370   33.5270 C   0  0  0  0  0  0  0  0  0  0  0  0
   35.8610    6.3040   33.3950 H   0  0  0  0  0  0  0  0  0  0  0  0
   37.4060    7.1610   34.5510 C   0  0  0  0  0  0  0  0  0  0  0  0
   37.5050    6.3420   35.1710 H   0  0  0  0  0  0  0  0  0  0  0  0
   41.6200    7.1550   38.0170 O   0  0  0  0  0  0  0  0  0  0  0  0
  1  2  1  0  0  0  0
  1 14  2  0  0  0  0
  3  1  1  0  0  0  0
  4  3  1  0  0  0  0
  5  3  2  0  0  0  0
  5  7  1  0  0  0  0
  6  5  1  0  0  0  0
  7 12  2  0  0  0  0
  8  7  1  0  0  0  0
  8 11  2  0  0  0  0
  9 10  1  0  0  0  0
  9  8  1  0  0  0  0
 12 14  1  0  0  0  0
 12 13  1  0  0  0  0
 14 15  1  0  0  0  0
 15 17  1  0  0  0  0
 15 16  1  0  0  0  0
 17 18  1  0  0  0  0
 18 19  1  0  0  0  0
 18 37  2  0  0  0  0
 19 20  1  0  0  0  0
 21 19  1  0  0  0  0
 22 21  2  0  0  0  0
 23 17  2  0  0  0  0
 23 21  1  0  0  0  0
 24 23  1  0  0  0  0
 25 26  1  0  0  0  0
 25 24  2  0  0  0  0
 27 25  1  0  0  0  0
 28 29  2  0  0  0  0
 28 27  1  0  0  0  0
 30 28  2  0  0  0  0
 31 27  2  0  0  0  0
 31 33  1  0  0  0  0
 32 31  1  0  0  0  0
 33 35  2  0  0  0  0
 34 33  1  0  0  0  0
 35 24  1  0  0  0  0
 35 36  1  0  0  0  0
M  END
>  <REMARK>
 37                     

$$$$
mol55.pdb
 OpenBabel11251619293D

 35 37  0  0  0  0  0  0  0  0999 V2000
   40.5470    5.6300   34.3710 C   0  0  0  0  0  0  0  0  0  0  0  0
   40.5430    4.2530   34.1120 C   0  0  0  0  0  0  0  0  0  0  0  0
   40.4520    3.5900   34.8980 H   0  0  0  0  0  0  0  0  0  0  0  0
   40.6600    3.7570   32.8030 C   0  0  0  0  0  0  0  0  0  0  0  0
   40.6300    2.2940   32.6510 C   0  0  0  0  0  0  0  0  0  0  0  0
   39.7670    1.9010   31.7010 O   0  0  0  0  0  0  0  0  0  0  0  0
   39.8000    0.9220   31.7210 H   0  0  0  0  0  0  0  0  0  0  0  0
   41.2030    1.5000   33.3720 O   0  0  0  0  0  0  0  0  0  0  0  0
   40.8170    4.6410   31.7340 C   0  0  0  0  0  0  0  0  0  0  0  0
   41.0800    4.1270   30.1070 Cl  0  0  0  0  0  0  0  0  0  0  0  0
   40.8230    6.0140   31.9820 C   0  0  0  0  0  0  0  0  0  0  0  0
   40.9320    6.6750   31.1970 H   0  0  0  0  0  0  0  0  0  0  0  0
   40.6830    6.5020   33.2870 C   0  0  0  0  0  0  0  0  0  0  0  0
   40.6800    7.5210   33.4510 H   0  0  0  0  0  0  0  0  0  0  0  0
   40.3750    6.0550   35.7040 N   0  0  0  0  0  0  0  0  0  0  0  0
   40.9990    5.5520   36.3440 H   0  0  0  0  0  0  0  0  0  0  0  0
   40.0900    7.3220   36.1640 C   0  0  0  0  0  0  0  0  0  0  0  0
   40.8040    7.8030   37.3810 C   0  0  0  0  0  0  0  0  0  0  0  0
   40.3840    9.0530   37.6390 N   0  0  0  0  0  0  0  0  0  0  0  0
   40.7020    9.6200   38.4070 H   0  0  0  0  0  0  0  0  0  0  0  0
   39.4380    9.4230   36.7540 C   0  0  0  0  0  0  0  0  0  0  0  0
   38.8580   10.4930   36.7390 O   0  0  0  0  0  0  0  0  0  0  0  0
   39.2260    8.2930   35.8150 C   0  0  0  0  0  0  0  0  0  0  0  0
   38.2170    8.2830   34.7480 C   0  0  0  0  0  0  0  0  0  0  0  0
   38.0170    9.4150   33.9440 C   0  0  0  0  0  0  0  0  0  0  0  0
   38.5810   10.2640   34.1080 H   0  0  0  0  0  0  0  0  0  0  0  0
   37.0620    9.4060   32.9220 C   0  0  0  0  0  0  0  0  0  0  0  0
   36.9270   10.2430   32.3340 H   0  0  0  0  0  0  0  0  0  0  0  0
   36.2950    8.2670   32.6990 C   0  0  0  0  0  0  0  0  0  0  0  0
   35.1260    8.2540   31.4380 Cl  0  0  0  0  0  0  0  0  0  0  0  0
   36.4690    7.1380   33.4940 C   0  0  0  0  0  0  0  0  0  0  0  0
   35.8970    6.2950   33.3290 H   0  0  0  0  0  0  0  0  0  0  0  0
   37.4220    7.1490   34.5180 C   0  0  0  0  0  0  0  0  0  0  0  0
   37.5420    6.3130   35.1120 H   0  0  0  0  0  0  0  0  0  0  0  0
   41.6170    7.1460   38.0070 O   0  0  0  0  0  0  0  0  0  0  0  0
  1 15  1  0  0  0  0
  2  1  1  0  0  0  0
  2  3  1  0  0  0  0
  4  2  2  0  0  0  0
  5  4  1  0  0  0  0
  5  8  2  0  0  0  0
  6  7  1  0  0  0  0
  6  5  1  0  0  0  0
  9 11  2  0  0  0  0
  9  4  1  0  0  0  0
 10  9  1  0  0  0  0
 11 13  1  0  0  0  0
 12 11  1  0  0  0  0
 13 14  1  0  0  0  0
 13  1  2  0  0  0  0
 15 17  1  0  0  0  0
 15 16  1  0  0  0  0
 17 18  1  0  0  0  0
 18 19  1  0  0  0  0
 18 35  2  0  0  0  0
 19 20  1  0  0  0  0
 21 19  1  0  0  0  0
 22 21  2  0  0  0  0
 23 17  2  0  0  0  0
 23 21  1  0  0  0  0
 24 23  1  0  0  0  0
 25 26  1  0  0  0  0
 25 24  2  0  0  0  0
 27 25  1  0  0  0  0
 28 27  1  0  0  0  0
 29 27  2  0  0  0  0
 29 31  1  0  0  0  0
 30 29  1  0  0  0  0
 31 33  2  0  0  0  0
 32 31  1  0  0  0  0
 33 24  1  0  0  0  0
 33 34  1  0  0  0  0
M  END
>  <REMARK>
 35                     

$$$$
mol56.pdb
 OpenBabel11251619293D

 36 38  0  0  0  0  0  0  0  0999 V2000
   40.6720    6.4840   33.2960 C   0  0  0  0  0  0  0  0  0  0  0  0
   40.6370    7.5030   33.4580 H   0  0  0  0  0  0  0  0  0  0  0  0
   40.8580    5.9980   31.9930 C   0  0  0  0  0  0  0  0  0  0  0  0
   40.9690    6.6630   31.2120 H   0  0  0  0  0  0  0  0  0  0  0  0
   40.8940    4.6270   31.7420 C   0  0  0  0  0  0  0  0  0  0  0  0
   41.1560    3.9290   30.1190 S   0  0  0  0  0  0  0  0  0  0  0  0
   40.2670    5.1040   29.0630 C   0  0  0  0  0  0  0  0  0  0  0  0
   39.2360    5.1310   29.3480 H   0  0  0  0  0  0  0  0  0  0  0  0
   40.6940    6.0790   29.1760 H   0  0  0  0  0  0  0  0  0  0  0  0
   40.3460    4.7960   28.0410 H   0  0  0  0  0  0  0  0  0  0  0  0
   40.7610    3.7480   32.8210 C   0  0  0  0  0  0  0  0  0  0  0  0
   40.7990    2.7300   32.6580 H   0  0  0  0  0  0  0  0  0  0  0  0
   40.5770    4.2360   34.1190 C   0  0  0  0  0  0  0  0  0  0  0  0
   40.4720    3.5700   34.9000 H   0  0  0  0  0  0  0  0  0  0  0  0
   40.5330    5.6120   34.3780 C   0  0  0  0  0  0  0  0  0  0  0  0
   40.3150    6.0300   35.7080 N   0  0  0  0  0  0  0  0  0  0  0  0
   40.9320    5.5250   36.3510 H   0  0  0  0  0  0  0  0  0  0  0  0
   40.0620    7.3080   36.1570 C   0  0  0  0  0  0  0  0  0  0  0  0
   40.7980    7.7850   37.3620 C   0  0  0  0  0  0  0  0  0  0  0  0
   40.4170    9.0490   37.6060 N   0  0  0  0  0  0  0  0  0  0  0  0
   40.7540    9.6170   38.3640 H   0  0  0  0  0  0  0  0  0  0  0  0
   39.4660    9.4300   36.7300 C   0  0  0  0  0  0  0  0  0  0  0  0
   38.9120   10.5150   36.7160 O   0  0  0  0  0  0  0  0  0  0  0  0
   39.2150    8.2960   35.8050 C   0  0  0  0  0  0  0  0  0  0  0  0
   38.1960    8.2970   34.7480 C   0  0  0  0  0  0  0  0  0  0  0  0
   37.9760    9.4410   33.9670 C   0  0  0  0  0  0  0  0  0  0  0  0
   38.5350   10.2910   34.1390 H   0  0  0  0  0  0  0  0  0  0  0  0
   37.0080    9.4430   32.9580 C   0  0  0  0  0  0  0  0  0  0  0  0
   36.8600   10.2910   32.3880 H   0  0  0  0  0  0  0  0  0  0  0  0
   36.2430    8.3040   32.7200 C   0  0  0  0  0  0  0  0  0  0  0  0
   35.5320    8.3050   31.9720 H   0  0  0  0  0  0  0  0  0  0  0  0
   36.4410    7.1630   33.4940 C   0  0  0  0  0  0  0  0  0  0  0  0
   35.8750    6.3180   33.3210 H   0  0  0  0  0  0  0  0  0  0  0  0
   37.4060    7.1630   34.5040 C   0  0  0  0  0  0  0  0  0  0  0  0
   37.5400    6.3170   35.0790 H   0  0  0  0  0  0  0  0  0  0  0  0
   41.5970    7.1150   37.9920 O   0  0  0  0  0  0  0  0  0  0  0  0
  1  2  1  0  0  0  0
  1 15  2  0  0  0  0
  3  1  1  0  0  0  0
  4  3  1  0  0  0  0
  5  3  2  0  0  0  0
  5 11  1  0  0  0  0
  6  5  1  0  0  0  0
  7  9  1  0  0  0  0
  7  8  1  0  0  0  0
  7  6  1  0  0  0  0
 10  7  1  0  0  0  0
 11 13  2  0  0  0  0
 12 11  1  0  0  0  0
 13 15  1  0  0  0  0
 13 14  1  0  0  0  0
 15 16  1  0  0  0  0
 16 18  1  0  0  0  0
 16 17  1  0  0  0  0
 18 19  1  0  0  0  0
 19 20  1  0  0  0  0
 19 36  2  0  0  0  0
 20 21  1  0  0  0  0
 22 20  1  0  0  0  0
 23 22  2  0  0  0  0
 24 18  2  0  0  0  0
 24 22  1  0  0  0  0
 25 24  1  0  0  0  0
 26 27  1  0  0  0  0
 26 25  2  0  0  0  0
 28 26  1  0  0  0  0
 29 28  1  0  0  0  0
 30 28  2  0  0  0  0
 30 32  1  0  0  0  0
 31 30  1  0  0  0  0
 32 34  2  0  0  0  0
 33 32  1  0  0  0  0
 34 25  1  0  0  0  0
 34 35  1  0  0  0  0
M  END
>  <REMARK>
 36                     

$$$$
mol57.pdb
 OpenBabel11251619293D

 36 38  0  0  0  0  0  0  0  0999 V2000
   40.7060    6.4830   33.2520 C   0  0  0  0  0  0  0  0  0  0  0  0
   40.7050    7.5050   33.3970 H   0  0  0  0  0  0  0  0  0  0  0  0
   40.8610    5.9700   31.9560 C   0  0  0  0  0  0  0  0  0  0  0  0
   40.9860    6.6180   31.1620 H   0  0  0  0  0  0  0  0  0  0  0  0
   40.8480    4.5930   31.7280 C   0  0  0  0  0  0  0  0  0  0  0  0
   41.0770    3.8620   30.1160 S   0  0  0  0  0  0  0  0  0  0  0  0
   40.1780    5.0220   29.0550 C   0  0  0  0  0  0  0  0  0  0  0  0
   39.1530    5.0610   29.3580 H   0  0  0  0  0  0  0  0  0  0  0  0
   40.6130    5.9960   29.1420 H   0  0  0  0  0  0  0  0  0  0  0  0
   40.2370    4.6940   28.0380 H   0  0  0  0  0  0  0  0  0  0  0  0
   40.6960    3.7370   32.8200 C   0  0  0  0  0  0  0  0  0  0  0  0
   40.6950    2.7160   32.6730 H   0  0  0  0  0  0  0  0  0  0  0  0
   40.5450    4.2510   34.1120 C   0  0  0  0  0  0  0  0  0  0  0  0
   40.4260    3.6010   34.9050 H   0  0  0  0  0  0  0  0  0  0  0  0
   40.5530    5.6320   34.3490 C   0  0  0  0  0  0  0  0  0  0  0  0
   40.3860    6.0760   35.6730 N   0  0  0  0  0  0  0  0  0  0  0  0
   41.0020    5.5670   36.3150 H   0  0  0  0  0  0  0  0  0  0  0  0
   40.1200    7.3460   36.1270 C   0  0  0  0  0  0  0  0  0  0  0  0
   40.8220    7.8150   37.3560 C   0  0  0  0  0  0  0  0  0  0  0  0
   40.4310    9.0770   37.6000 N   0  0  0  0  0  0  0  0  0  0  0  0
   40.6770    9.5940   38.4270 H   0  0  0  0  0  0  0  0  0  0  0  0
   39.4020    9.4010   36.7930 C   0  0  0  0  0  0  0  0  0  0  0  0
   38.6650   10.3600   36.9300 O   0  0  0  0  0  0  0  0  0  0  0  0
   39.2630    8.3240   35.7820 C   0  0  0  0  0  0  0  0  0  0  0  0
   38.2550    8.3310   34.7150 C   0  0  0  0  0  0  0  0  0  0  0  0
   38.1340    9.3810   33.7870 C   0  0  0  0  0  0  0  0  0  0  0  0
   39.2540   10.7000   33.7310 Cl  0  0  0  0  0  0  0  0  0  0  0  0
   37.1260    9.3620   32.8160 C   0  0  0  0  0  0  0  0  0  0  0  0
   37.0390   10.1470   32.1510 H   0  0  0  0  0  0  0  0  0  0  0  0
   36.2390    8.2890   32.7420 C   0  0  0  0  0  0  0  0  0  0  0  0
   35.4950    8.2790   32.0270 H   0  0  0  0  0  0  0  0  0  0  0  0
   36.3620    7.2310   33.6380 C   0  0  0  0  0  0  0  0  0  0  0  0
   35.7170    6.4270   33.5770 H   0  0  0  0  0  0  0  0  0  0  0  0
   37.3550    7.2540   34.6190 C   0  0  0  0  0  0  0  0  0  0  0  0
   37.4300    6.4690   35.2840 H   0  0  0  0  0  0  0  0  0  0  0  0
   41.5800    7.1300   38.0210 O   0  0  0  0  0  0  0  0  0  0  0  0
  1  2  1  0  0  0  0
  1 15  2  0  0  0  0
  3  1  1  0  0  0  0
  4  3  1  0  0  0  0
  5  3  2  0  0  0  0
  5 11  1  0  0  0  0
  6  5  1  0  0  0  0
  7  9  1  0  0  0  0
  7  8  1  0  0  0  0
  7  6  1  0  0  0  0
 10  7  1  0  0  0  0
 11 13  2  0  0  0  0
 12 11  1  0  0  0  0
 13 15  1  0  0  0  0
 13 14  1  0  0  0  0
 15 16  1  0  0  0  0
 16 18  1  0  0  0  0
 16 17  1  0  0  0  0
 18 19  1  0  0  0  0
 19 20  1  0  0  0  0
 19 36  2  0  0  0  0
 20 21  1  0  0  0  0
 22 23  2  0  0  0  0
 22 20  1  0  0  0  0
 24 18  2  0  0  0  0
 24 22  1  0  0  0  0
 25 24  1  0  0  0  0
 26 25  2  0  0  0  0
 27 26  1  0  0  0  0
 28 26  1  0  0  0  0
 29 28  1  0  0  0  0
 30 28  2  0  0  0  0
 30 32  1  0  0  0  0
 31 30  1  0  0  0  0
 32 34  2  0  0  0  0
 33 32  1  0  0  0  0
 34 25  1  0  0  0  0
 34 35  1  0  0  0  0
M  END
>  <REMARK>
 36                     

$$$$
mol58.pdb
 OpenBabel11251619293D

 40 42  0  0  0  0  0  0  0  0999 V2000
   38.2310    8.3180   34.7310 C   0  0  0  0  0  0  0  0  0  0  0  0
   39.2500    8.3230   35.7860 C   0  0  0  0  0  0  0  0  0  0  0  0
   39.4500    9.4290   36.7540 C   0  0  0  0  0  0  0  0  0  0  0  0
   40.4570    9.0730   37.5760 N   0  0  0  0  0  0  0  0  0  0  0  0
   40.7340    9.6010   38.3860 H   0  0  0  0  0  0  0  0  0  0  0  0
   40.8090    7.7950   37.3530 C   0  0  0  0  0  0  0  0  0  0  0  0
   41.5460    7.0970   38.0260 O   0  0  0  0  0  0  0  0  0  0  0  0
   40.0880    7.3300   36.1360 C   0  0  0  0  0  0  0  0  0  0  0  0
   40.3190    6.0480   35.6860 N   0  0  0  0  0  0  0  0  0  0  0  0
   40.9220    5.5290   36.3300 H   0  0  0  0  0  0  0  0  0  0  0  0
   40.5260    5.6280   34.3560 C   0  0  0  0  0  0  0  0  0  0  0  0
   40.5170    4.2520   34.0900 C   0  0  0  0  0  0  0  0  0  0  0  0
   40.3670    3.5870   34.8650 H   0  0  0  0  0  0  0  0  0  0  0  0
   40.7080    3.7640   32.7930 C   0  0  0  0  0  0  0  0  0  0  0  0
   40.7070    2.7460   32.6240 H   0  0  0  0  0  0  0  0  0  0  0  0
   40.9000    4.6430   31.7240 C   0  0  0  0  0  0  0  0  0  0  0  0
   41.1800    3.9530   30.1020 S   0  0  0  0  0  0  0  0  0  0  0  0
   40.2330    5.0940   29.0580 C   0  0  0  0  0  0  0  0  0  0  0  0
   39.2050    5.0780   29.3540 H   0  0  0  0  0  0  0  0  0  0  0  0
   40.6210    6.0850   29.1700 H   0  0  0  0  0  0  0  0  0  0  0  0
   40.3150    4.7920   28.0350 H   0  0  0  0  0  0  0  0  0  0  0  0
   40.9130    6.0150   31.9810 C   0  0  0  0  0  0  0  0  0  0  0  0
   41.0680    6.6790   31.2060 H   0  0  0  0  0  0  0  0  0  0  0  0
   40.7180    6.5000   33.2820 C   0  0  0  0  0  0  0  0  0  0  0  0
   40.7160    7.5180   33.4490 H   0  0  0  0  0  0  0  0  0  0  0  0
   38.7760   10.4390   36.8600 O   0  0  0  0  0  0  0  0  0  0  0  0
   38.0980    9.3790   33.8160 C   0  0  0  0  0  0  0  0  0  0  0  0
   39.0230   10.3940   33.8720 O   0  0  0  0  0  0  0  0  0  0  0  0
   38.4670   11.6950   33.6820 C   0  0  0  0  0  0  0  0  0  0  0  0
   37.9990   11.7460   32.7210 H   0  0  0  0  0  0  0  0  0  0  0  0
   37.7400   11.8870   34.4430 H   0  0  0  0  0  0  0  0  0  0  0  0
   39.2450   12.4270   33.7390 H   0  0  0  0  0  0  0  0  0  0  0  0
   37.1110    9.3320   32.8240 C   0  0  0  0  0  0  0  0  0  0  0  0
   37.0290   10.1050   32.1450 H   0  0  0  0  0  0  0  0  0  0  0  0
   36.2380    8.2470   32.7480 C   0  0  0  0  0  0  0  0  0  0  0  0
   35.5080    8.2220   32.0190 H   0  0  0  0  0  0  0  0  0  0  0  0
   36.3520    7.1990   33.6550 C   0  0  0  0  0  0  0  0  0  0  0  0
   35.7060    6.3960   33.6000 H   0  0  0  0  0  0  0  0  0  0  0  0
   37.3390    7.2340   34.6390 C   0  0  0  0  0  0  0  0  0  0  0  0
   37.4160    6.4530   35.3100 H   0  0  0  0  0  0  0  0  0  0  0  0
  1  2  1  0  0  0  0
  2  8  2  0  0  0  0
  2  3  1  0  0  0  0
  3 26  2  0  0  0  0
  3  4  1  0  0  0  0
  4  5  1  0  0  0  0
  6  4  1  0  0  0  0
  6  7  2  0  0  0  0
  8  6  1  0  0  0  0
  9  8  1  0  0  0  0
  9 10  1  0  0  0  0
 11  9  1  0  0  0  0
 12 11  1  0  0  0  0
 12 13  1  0  0  0  0
 14 12  2  0  0  0  0
 15 14  1  0  0  0  0
 16 22  2  0  0  0  0
 16 14  1  0  0  0  0
 17 16  1  0  0  0  0
 18 20  1  0  0  0  0
 18 19  1  0  0  0  0
 18 17  1  0  0  0  0
 21 18  1  0  0  0  0
 22 24  1  0  0  0  0
 23 22  1  0  0  0  0
 24 25  1  0  0  0  0
 24 11  2  0  0  0  0
 27 28  1  0  0  0  0
 27  1  2  0  0  0  0
 29 32  1  0  0  0  0
 29 28  1  0  0  0  0
 29 31  1  0  0  0  0
 30 29  1  0  0  0  0
 33 27  1  0  0  0  0
 34 33  1  0  0  0  0
 35 33  2  0  0  0  0
 35 37  1  0  0  0  0
 36 35  1  0  0  0  0
 37 39  2  0  0  0  0
 38 37  1  0  0  0  0
 39  1  1  0  0  0  0
 39 40  1  0  0  0  0
M  END
>  <REMARK>
 40                     

$$$$
mol59.pdb
 OpenBabel11251619293D

 36 38  0  0  0  0  0  0  0  0999 V2000
   40.7180    6.5170   33.3180 C   0  0  0  0  0  0  0  0  0  0  0  0
   40.7120    7.5320   33.5040 H   0  0  0  0  0  0  0  0  0  0  0  0
   40.9370    6.0570   32.0120 C   0  0  0  0  0  0  0  0  0  0  0  0
   41.1000    6.7360   31.2520 H   0  0  0  0  0  0  0  0  0  0  0  0
   40.9370    4.6910   31.7300 C   0  0  0  0  0  0  0  0  0  0  0  0
   41.2540    4.0390   30.0990 S   0  0  0  0  0  0  0  0  0  0  0  0
   40.2440    5.1430   29.0750 C   0  0  0  0  0  0  0  0  0  0  0  0
   39.2190    5.0660   29.3720 H   0  0  0  0  0  0  0  0  0  0  0  0
   40.5780    6.1520   29.2020 H   0  0  0  0  0  0  0  0  0  0  0  0
   40.3400    4.8630   28.0470 H   0  0  0  0  0  0  0  0  0  0  0  0
   40.7340    3.7910   32.7790 C   0  0  0  0  0  0  0  0  0  0  0  0
   40.7440    2.7760   32.5910 H   0  0  0  0  0  0  0  0  0  0  0  0
   40.5170    4.2520   34.0820 C   0  0  0  0  0  0  0  0  0  0  0  0
   40.3610    3.5710   34.8420 H   0  0  0  0  0  0  0  0  0  0  0  0
   40.5080    5.6230   34.3730 C   0  0  0  0  0  0  0  0  0  0  0  0
   40.2770    6.0190   35.7090 N   0  0  0  0  0  0  0  0  0  0  0  0
   40.8980    5.5060   36.3430 H   0  0  0  0  0  0  0  0  0  0  0  0
   40.0480    7.2990   36.1630 C   0  0  0  0  0  0  0  0  0  0  0  0
   40.7960    7.7770   37.3600 C   0  0  0  0  0  0  0  0  0  0  0  0
   40.4290    9.0490   37.5930 N   0  0  0  0  0  0  0  0  0  0  0  0
   40.7780    9.6200   38.3440 H   0  0  0  0  0  0  0  0  0  0  0  0
   39.4780    9.4330   36.7180 C   0  0  0  0  0  0  0  0  0  0  0  0
   38.9310   10.5200   36.6880 O   0  0  0  0  0  0  0  0  0  0  0  0
   39.2120    8.2910   35.8100 C   0  0  0  0  0  0  0  0  0  0  0  0
   38.1900    8.2840   34.7590 C   0  0  0  0  0  0  0  0  0  0  0  0
   38.0600    9.3660   33.8790 C   0  0  0  0  0  0  0  0  0  0  0  0
   38.6820   10.1840   33.9750 H   0  0  0  0  0  0  0  0  0  0  0  0
   37.0930    9.3430   32.8720 C   0  0  0  0  0  0  0  0  0  0  0  0
   36.9670   10.6660   31.7790 Cl  0  0  0  0  0  0  0  0  0  0  0  0
   36.2340    8.2540   32.7390 C   0  0  0  0  0  0  0  0  0  0  0  0
   35.5210    8.2440   31.9930 H   0  0  0  0  0  0  0  0  0  0  0  0
   36.3430    7.1800   33.6170 C   0  0  0  0  0  0  0  0  0  0  0  0
   35.7060    6.3730   33.5270 H   0  0  0  0  0  0  0  0  0  0  0  0
   37.3150    7.1950   34.6200 C   0  0  0  0  0  0  0  0  0  0  0  0
   37.3910    6.3950   35.2670 H   0  0  0  0  0  0  0  0  0  0  0  0
   41.5900    7.1040   37.9930 O   0  0  0  0  0  0  0  0  0  0  0  0
  1  2  1  0  0  0  0
  1 15  2  0  0  0  0
  3  1  1  0  0  0  0
  4  3  1  0  0  0  0
  5  3  2  0  0  0  0
  5 11  1  0  0  0  0
  6  5  1  0  0  0  0
  7  9  1  0  0  0  0
  7  8  1  0  0  0  0
  7  6  1  0  0  0  0
 10  7  1  0  0  0  0
 11 13  2  0  0  0  0
 12 11  1  0  0  0  0
 13 15  1  0  0  0  0
 13 14  1  0  0  0  0
 15 16  1  0  0  0  0
 16 18  1  0  0  0  0
 16 17  1  0  0  0  0
 18 19  1  0  0  0  0
 19 20  1  0  0  0  0
 19 36  2  0  0  0  0
 20 21  1  0  0  0  0
 22 20  1  0  0  0  0
 23 22  2  0  0  0  0
 24 18  2  0  0  0  0
 24 22  1  0  0  0  0
 25 24  1  0  0  0  0
 26 27  1  0  0  0  0
 26 25  2  0  0  0  0
 28 26  1  0  0  0  0
 29 28  1  0  0  0  0
 30 28  2  0  0  0  0
 30 32  1  0  0  0  0
 31 30  1  0  0  0  0
 32 34  2  0  0  0  0
 33 32  1  0  0  0  0
 34 25  1  0  0  0  0
 34 35  1  0  0  0  0
M  END
>  <REMARK>
 36                     

$$$$
mol50.pdb
 OpenBabel11251619293D

 35 37  0  0  0  0  0  0  0  0999 V2000
   40.5650    5.6540   34.3400 C   0  0  0  0  0  0  0  0  0  0  0  0
   40.5400    4.2720   34.1020 C   0  0  0  0  0  0  0  0  0  0  0  0
   40.4480    3.6260   34.9010 H   0  0  0  0  0  0  0  0  0  0  0  0
   40.6370    3.7440   32.8020 C   0  0  0  0  0  0  0  0  0  0  0  0
   40.6100    2.2710   32.7000 C   0  0  0  0  0  0  0  0  0  0  0  0
   39.9310    1.8210   31.6340 O   0  0  0  0  0  0  0  0  0  0  0  0
   39.9770    0.8450   31.7050 H   0  0  0  0  0  0  0  0  0  0  0  0
   41.0520    1.5060   33.5380 O   0  0  0  0  0  0  0  0  0  0  0  0
   40.7830    4.6110   31.7170 C   0  0  0  0  0  0  0  0  0  0  0  0
   41.0330    4.0860   30.0910 Cl  0  0  0  0  0  0  0  0  0  0  0  0
   40.7970    5.9910   31.9420 C   0  0  0  0  0  0  0  0  0  0  0  0
   40.8920    6.6370   31.1430 H   0  0  0  0  0  0  0  0  0  0  0  0
   40.6840    6.5050   33.2390 C   0  0  0  0  0  0  0  0  0  0  0  0
   40.6890    7.5270   33.3840 H   0  0  0  0  0  0  0  0  0  0  0  0
   40.4420    6.1000   35.6670 N   0  0  0  0  0  0  0  0  0  0  0  0
   41.0630    5.5920   36.3050 H   0  0  0  0  0  0  0  0  0  0  0  0
   40.1420    7.3570   36.1370 C   0  0  0  0  0  0  0  0  0  0  0  0
   40.8200    7.8260   37.3790 C   0  0  0  0  0  0  0  0  0  0  0  0
   40.3890    9.0700   37.6430 N   0  0  0  0  0  0  0  0  0  0  0  0
   40.6240    9.5890   38.4720 H   0  0  0  0  0  0  0  0  0  0  0  0
   39.3770    9.3940   36.8150 C   0  0  0  0  0  0  0  0  0  0  0  0
   38.6350   10.3520   36.9330 O   0  0  0  0  0  0  0  0  0  0  0  0
   39.2660    8.3200   35.7980 C   0  0  0  0  0  0  0  0  0  0  0  0
   38.2690    8.3180   34.7230 C   0  0  0  0  0  0  0  0  0  0  0  0
   38.1920    9.3370   33.7570 C   0  0  0  0  0  0  0  0  0  0  0  0
   39.3420   10.6280   33.6860 Cl  0  0  0  0  0  0  0  0  0  0  0  0
   37.2060    9.3040   32.7650 C   0  0  0  0  0  0  0  0  0  0  0  0
   37.1530   10.0620   32.0670 H   0  0  0  0  0  0  0  0  0  0  0  0
   36.2940    8.2500   32.7170 C   0  0  0  0  0  0  0  0  0  0  0  0
   35.5660    8.2290   31.9860 H   0  0  0  0  0  0  0  0  0  0  0  0
   36.3680    7.2260   33.6570 C   0  0  0  0  0  0  0  0  0  0  0  0
   35.7010    6.4400   33.6160 H   0  0  0  0  0  0  0  0  0  0  0  0
   37.3440    7.2610   34.6550 C   0  0  0  0  0  0  0  0  0  0  0  0
   37.3870    6.5010   35.3520 H   0  0  0  0  0  0  0  0  0  0  0  0
   41.5990    7.1520   38.0320 O   0  0  0  0  0  0  0  0  0  0  0  0
  1 15  1  0  0  0  0
  2  1  1  0  0  0  0
  2  3  1  0  0  0  0
  4  2  2  0  0  0  0
  5  4  1  0  0  0  0
  5  8  2  0  0  0  0
  6  7  1  0  0  0  0
  6  5  1  0  0  0  0
  9 11  2  0  0  0  0
  9  4  1  0  0  0  0
 10  9  1  0  0  0  0
 11 13  1  0  0  0  0
 12 11  1  0  0  0  0
 13 14  1  0  0  0  0
 13  1  2  0  0  0  0
 15 17  1  0  0  0  0
 15 16  1  0  0  0  0
 17 18  1  0  0  0  0
 18 19  1  0  0  0  0
 18 35  2  0  0  0  0
 19 20  1  0  0  0  0
 21 22  2  0  0  0  0
 21 19  1  0  0  0  0
 23 17  2  0  0  0  0
 23 21  1  0  0  0  0
 24 23  1  0  0  0  0
 25 24  2  0  0  0  0
 26 25  1  0  0  0  0
 27 25  1  0  0  0  0
 28 27  1  0  0  0  0
 29 27  2  0  0  0  0
 29 31  1  0  0  0  0
 30 29  1  0  0  0  0
 31 33  2  0  0  0  0
 32 31  1  0  0  0  0
 33 24  1  0  0  0  0
 33 34  1  0  0  0  0
M  END
>  <REMARK>
 35                     

$$$$
mol61.pdb
 OpenBabel11251619293D

 38 40  0  0  0  0  0  0  0  0999 V2000
   38.1870    8.2990   34.7520 C   0  0  0  0  0  0  0  0  0  0  0  0
   39.2190    8.2940   35.8110 C   0  0  0  0  0  0  0  0  0  0  0  0
   39.4850    9.4290   36.7300 C   0  0  0  0  0  0  0  0  0  0  0  0
   40.4470    9.0390   37.5980 N   0  0  0  0  0  0  0  0  0  0  0  0
   40.8280    9.6120   38.3020 H   0  0  0  0  0  0  0  0  0  0  0  0
   40.8150    7.7590   37.3700 C   0  0  0  0  0  0  0  0  0  0  0  0
   41.6070    7.1030   38.0010 O   0  0  0  0  0  0  0  0  0  0  0  0
   40.0470    7.2940   36.1730 C   0  0  0  0  0  0  0  0  0  0  0  0
   40.2400    6.0190   35.6990 N   0  0  0  0  0  0  0  0  0  0  0  0
   40.1770    5.2970   36.3660 H   0  0  0  0  0  0  0  0  0  0  0  0
   40.5160    5.6170   34.3830 C   0  0  0  0  0  0  0  0  0  0  0  0
   40.5320    4.2540   34.0860 C   0  0  0  0  0  0  0  0  0  0  0  0
   40.3810    3.5700   34.8440 H   0  0  0  0  0  0  0  0  0  0  0  0
   40.7490    3.7950   32.7800 C   0  0  0  0  0  0  0  0  0  0  0  0
   40.7660    2.7800   32.5930 H   0  0  0  0  0  0  0  0  0  0  0  0
   40.9420    4.6900   31.7320 C   0  0  0  0  0  0  0  0  0  0  0  0
   41.2580    4.0400   30.1030 S   0  0  0  0  0  0  0  0  0  0  0  0
   40.2360    5.1430   29.0930 C   0  0  0  0  0  0  0  0  0  0  0  0
   39.2130    5.0590   29.3970 H   0  0  0  0  0  0  0  0  0  0  0  0
   40.5650    6.1530   29.2230 H   0  0  0  0  0  0  0  0  0  0  0  0
   40.3260    4.8680   28.0630 H   0  0  0  0  0  0  0  0  0  0  0  0
   40.9320    6.0520   32.0200 C   0  0  0  0  0  0  0  0  0  0  0  0
   41.0850    6.7340   31.2610 H   0  0  0  0  0  0  0  0  0  0  0  0
   40.7170    6.5080   33.3280 C   0  0  0  0  0  0  0  0  0  0  0  0
   40.7070    7.5230   33.5140 H   0  0  0  0  0  0  0  0  0  0  0  0
   38.9360   10.5040   36.7110 O   0  0  0  0  0  0  0  0  0  0  0  0
   38.0300    9.3820   33.8450 C   0  0  0  0  0  0  0  0  0  0  0  0
   38.6400   10.2090   33.9400 H   0  0  0  0  0  0  0  0  0  0  0  0
   37.0530    9.3580   32.8080 C   0  0  0  0  0  0  0  0  0  0  0  0
   36.8190   10.5440   31.9270 N   0  0  0  0  0  0  0  0  0  0  0  0
   37.3320   11.5840   32.3670 O   0  0  0  0  0  0  0  0  0  0  0  0
   36.0720   10.4630   30.9200 O   0  0  0  0  0  0  0  0  0  0  0  0
   36.2160    8.2570   32.7270 C   0  0  0  0  0  0  0  0  0  0  0  0
   35.4870    8.2200   31.9980 H   0  0  0  0  0  0  0  0  0  0  0  0
   36.3530    7.1900   33.6310 C   0  0  0  0  0  0  0  0  0  0  0  0
   35.7210    6.3780   33.5530 H   0  0  0  0  0  0  0  0  0  0  0  0
   37.3260    7.2040   34.6320 C   0  0  0  0  0  0  0  0  0  0  0  0
   37.4100    6.4070   35.2820 H   0  0  0  0  0  0  0  0  0  0  0  0
  1  2  1  0  0  0  0
  2  8  2  0  0  0  0
  2  3  1  0  0  0  0
  3  4  1  0  0  0  0
  4  5  1  0  0  0  0
  6  4  1  0  0  0  0
  6  7  2  0  0  0  0
  8  6  1  0  0  0  0
  9  8  1  0  0  0  0
  9 10  1  0  0  0  0
 11  9  1  0  0  0  0
 12 11  1  0  0  0  0
 12 13  1  0  0  0  0
 14 12  2  0  0  0  0
 15 14  1  0  0  0  0
 16 22  2  0  0  0  0
 16 14  1  0  0  0  0
 17 16  1  0  0  0  0
 18 20  1  0  0  0  0
 18 19  1  0  0  0  0
 18 17  1  0  0  0  0
 21 18  1  0  0  0  0
 22 24  1  0  0  0  0
 23 22  1  0  0  0  0
 24 25  1  0  0  0  0
 24 11  2  0  0  0  0
 26  3  2  0  0  0  0
 27 28  1  0  0  0  0
 27  1  2  0  0  0  0
 29 27  1  0  0  0  0
 30 31  2  0  0  0  0
 30 29  1  0  0  0  0
 32 30  2  0  0  0  0
 33 29  2  0  0  0  0
 33 35  1  0  0  0  0
 34 33  1  0  0  0  0
 35 37  2  0  0  0  0
 36 35  1  0  0  0  0
 37  1  1  0  0  0  0
 37 38  1  0  0  0  0
M  END
>  <REMARK>
 38                     

$$$$
mol62.pdb
 OpenBabel11251619293D

 36 38  0  0  0  0  0  0  0  0999 V2000
   40.7190    6.5150   33.3310 C   0  0  0  0  0  0  0  0  0  0  0  0
   40.7060    7.5290   33.5210 H   0  0  0  0  0  0  0  0  0  0  0  0
   40.9540    6.0620   32.0270 C   0  0  0  0  0  0  0  0  0  0  0  0
   41.1220    6.7440   31.2710 H   0  0  0  0  0  0  0  0  0  0  0  0
   40.9630    4.6970   31.7400 C   0  0  0  0  0  0  0  0  0  0  0  0
   41.2970    4.0630   30.1070 S   0  0  0  0  0  0  0  0  0  0  0  0
   40.2120    5.1130   29.1020 C   0  0  0  0  0  0  0  0  0  0  0  0
   39.1970    4.9790   29.4140 H   0  0  0  0  0  0  0  0  0  0  0  0
   40.4910    6.1380   29.2280 H   0  0  0  0  0  0  0  0  0  0  0  0
   40.3080    4.8410   28.0710 H   0  0  0  0  0  0  0  0  0  0  0  0
   40.7550    3.7900   32.7820 C   0  0  0  0  0  0  0  0  0  0  0  0
   40.7740    2.7760   32.5900 H   0  0  0  0  0  0  0  0  0  0  0  0
   40.5210    4.2470   34.0840 C   0  0  0  0  0  0  0  0  0  0  0  0
   40.3600    3.5630   34.8400 H   0  0  0  0  0  0  0  0  0  0  0  0
   40.5020    5.6160   34.3800 C   0  0  0  0  0  0  0  0  0  0  0  0
   40.2490    6.0060   35.7150 N   0  0  0  0  0  0  0  0  0  0  0  0
   40.8620    5.4890   36.3540 H   0  0  0  0  0  0  0  0  0  0  0  0
   40.0330    7.2910   36.1660 C   0  0  0  0  0  0  0  0  0  0  0  0
   40.7940    7.7690   37.3530 C   0  0  0  0  0  0  0  0  0  0  0  0
   40.4410    9.0460   37.5800 N   0  0  0  0  0  0  0  0  0  0  0  0
   40.8070    9.6210   38.3190 H   0  0  0  0  0  0  0  0  0  0  0  0
   39.4950    9.4370   36.7030 C   0  0  0  0  0  0  0  0  0  0  0  0
   38.9750   10.5360   36.6580 O   0  0  0  0  0  0  0  0  0  0  0  0
   39.2050    8.2900   35.8100 C   0  0  0  0  0  0  0  0  0  0  0  0
   38.1790    8.2840   34.7610 C   0  0  0  0  0  0  0  0  0  0  0  0
   38.0250    9.3820   33.9010 C   0  0  0  0  0  0  0  0  0  0  0  0
   38.6350   10.2070   34.0130 H   0  0  0  0  0  0  0  0  0  0  0  0
   37.0540    9.3700   32.8940 C   0  0  0  0  0  0  0  0  0  0  0  0
   36.9530   10.1800   32.2630 H   0  0  0  0  0  0  0  0  0  0  0  0
   36.2240    8.2630   32.7450 C   0  0  0  0  0  0  0  0  0  0  0  0
   35.0350    8.2460   31.5030 Cl  0  0  0  0  0  0  0  0  0  0  0  0
   36.3490    7.1700   33.5980 C   0  0  0  0  0  0  0  0  0  0  0  0
   35.7260    6.3540   33.4900 H   0  0  0  0  0  0  0  0  0  0  0  0
   37.3220    7.1830   34.6020 C   0  0  0  0  0  0  0  0  0  0  0  0
   37.4120    6.3730   35.2350 H   0  0  0  0  0  0  0  0  0  0  0  0
   41.5880    7.0930   37.9840 O   0  0  0  0  0  0  0  0  0  0  0  0
  1  2  1  0  0  0  0
  1 15  2  0  0  0  0
  3  1  1  0  0  0  0
  4  3  1  0  0  0  0
  5  3  2  0  0  0  0
  5 11  1  0  0  0  0
  6  5  1  0  0  0  0
  7  9  1  0  0  0  0
  7  8  1  0  0  0  0
  7  6  1  0  0  0  0
 10  7  1  0  0  0  0
 11 13  2  0  0  0  0
 12 11  1  0  0  0  0
 13 15  1  0  0  0  0
 13 14  1  0  0  0  0
 15 16  1  0  0  0  0
 16 18  1  0  0  0  0
 16 17  1  0  0  0  0
 18 19  1  0  0  0  0
 19 20  1  0  0  0  0
 19 36  2  0  0  0  0
 20 21  1  0  0  0  0
 22 20  1  0  0  0  0
 23 22  2  0  0  0  0
 24 18  2  0  0  0  0
 24 22  1  0  0  0  0
 25 24  1  0  0  0  0
 26 27  1  0  0  0  0
 26 25  2  0  0  0  0
 28 26  1  0  0  0  0
 29 28  1  0  0  0  0
 30 28  2  0  0  0  0
 30 32  1  0  0  0  0
 31 30  1  0  0  0  0
 32 34  2  0  0  0  0
 33 32  1  0  0  0  0
 34 25  1  0  0  0  0
 34 35  1  0  0  0  0
M  END
>  <REMARK>
 36                     

$$$$
mol63.pdb
 OpenBabel11251619293D

 40 42  0  0  0  0  0  0  0  0999 V2000
   38.1780    8.2870   34.7650 C   0  0  0  0  0  0  0  0  0  0  0  0
   39.2060    8.2950   35.8120 C   0  0  0  0  0  0  0  0  0  0  0  0
   39.5130    9.4450   36.6980 C   0  0  0  0  0  0  0  0  0  0  0  0
   40.4560    9.0480   37.5740 N   0  0  0  0  0  0  0  0  0  0  0  0
   40.8290    9.6230   38.3100 H   0  0  0  0  0  0  0  0  0  0  0  0
   40.7950    7.7660   37.3540 C   0  0  0  0  0  0  0  0  0  0  0  0
   41.5800    7.0840   37.9880 O   0  0  0  0  0  0  0  0  0  0  0  0
   40.0280    7.2920   36.1700 C   0  0  0  0  0  0  0  0  0  0  0  0
   40.2330    6.0040   35.7200 N   0  0  0  0  0  0  0  0  0  0  0  0
   40.8420    5.4830   36.3580 H   0  0  0  0  0  0  0  0  0  0  0  0
   40.4920    5.6180   34.3840 C   0  0  0  0  0  0  0  0  0  0  0  0
   40.4850    4.2520   34.0760 C   0  0  0  0  0  0  0  0  0  0  0  0
   40.3000    3.5640   34.8230 H   0  0  0  0  0  0  0  0  0  0  0  0
   40.7250    3.8030   32.7710 C   0  0  0  0  0  0  0  0  0  0  0  0
   40.7260    2.7910   32.5690 H   0  0  0  0  0  0  0  0  0  0  0  0
   40.9630    4.7150   31.7410 C   0  0  0  0  0  0  0  0  0  0  0  0
   41.2990    4.0940   30.1020 S   0  0  0  0  0  0  0  0  0  0  0  0
   40.2120    5.1530   29.1100 C   0  0  0  0  0  0  0  0  0  0  0  0
   39.1980    5.0150   29.4220 H   0  0  0  0  0  0  0  0  0  0  0  0
   40.4900    6.1770   29.2460 H   0  0  0  0  0  0  0  0  0  0  0  0
   40.3060    4.8920   28.0770 H   0  0  0  0  0  0  0  0  0  0  0  0
   40.9800    6.0780   32.0410 C   0  0  0  0  0  0  0  0  0  0  0  0
   41.1720    6.7640   31.2940 H   0  0  0  0  0  0  0  0  0  0  0  0
   40.7390    6.5230   33.3470 C   0  0  0  0  0  0  0  0  0  0  0  0
   40.7440    7.5350   33.5470 H   0  0  0  0  0  0  0  0  0  0  0  0
   39.0060   10.5510   36.6500 O   0  0  0  0  0  0  0  0  0  0  0  0
   38.0020    9.3840   33.9150 C   0  0  0  0  0  0  0  0  0  0  0  0
   38.5900   10.2230   34.0340 H   0  0  0  0  0  0  0  0  0  0  0  0
   37.0340    9.3520   32.9040 C   0  0  0  0  0  0  0  0  0  0  0  0
   36.9190   10.1680   32.2830 H   0  0  0  0  0  0  0  0  0  0  0  0
   36.2230    8.2300   32.7260 C   0  0  0  0  0  0  0  0  0  0  0  0
   35.3290    8.3210   31.6960 O   0  0  0  0  0  0  0  0  0  0  0  0
   34.5690    7.1540   31.4050 C   0  0  0  0  0  0  0  0  0  0  0  0
   35.2300    6.3530   31.1460 H   0  0  0  0  0  0  0  0  0  0  0  0
   33.9950    6.8790   32.2650 H   0  0  0  0  0  0  0  0  0  0  0  0
   33.9110    7.3520   30.5850 H   0  0  0  0  0  0  0  0  0  0  0  0
   36.3730    7.1430   33.5840 C   0  0  0  0  0  0  0  0  0  0  0  0
   35.7700    6.3130   33.4740 H   0  0  0  0  0  0  0  0  0  0  0  0
   37.3400    7.1750   34.5960 C   0  0  0  0  0  0  0  0  0  0  0  0
   37.4380    6.3660   35.2290 H   0  0  0  0  0  0  0  0  0  0  0  0
  1  2  1  0  0  0  0
  2  8  2  0  0  0  0
  2  3  1  0  0  0  0
  3  4  1  0  0  0  0
  4  5  1  0  0  0  0
  6  4  1  0  0  0  0
  6  7  2  0  0  0  0
  8  6  1  0  0  0  0
  9  8  1  0  0  0  0
  9 10  1  0  0  0  0
 11  9  1  0  0  0  0
 12 11  1  0  0  0  0
 12 13  1  0  0  0  0
 14 12  2  0  0  0  0
 15 14  1  0  0  0  0
 16 22  2  0  0  0  0
 16 14  1  0  0  0  0
 17 16  1  0  0  0  0
 18 20  1  0  0  0  0
 18 19  1  0  0  0  0
 18 17  1  0  0  0  0
 21 18  1  0  0  0  0
 22 24  1  0  0  0  0
 23 22  1  0  0  0  0
 24 25  1  0  0  0  0
 24 11  2  0  0  0  0
 26  3  2  0  0  0  0
 27 28  1  0  0  0  0
 27  1  2  0  0  0  0
 29 27  1  0  0  0  0
 30 29  1  0  0  0  0
 31 29  2  0  0  0  0
 31 37  1  0  0  0  0
 32 31  1  0  0  0  0
 33 32  1  0  0  0  0
 33 35  1  0  0  0  0
 34 33  1  0  0  0  0
 36 33  1  0  0  0  0
 37 39  2  0  0  0  0
 38 37  1  0  0  0  0
 39  1  1  0  0  0  0
 39 40  1  0  0  0  0
M  END
>  <REMARK>
 40                     

$$$$
mol64.pdb
 OpenBabel11251619293D

 38 40  0  0  0  0  0  0  0  0999 V2000
   38.1860    8.2830   34.7490 C   0  0  0  0  0  0  0  0  0  0  0  0
   39.2120    8.2880   35.8010 C   0  0  0  0  0  0  0  0  0  0  0  0
   39.4880    9.4340   36.7030 C   0  0  0  0  0  0  0  0  0  0  0  0
   40.4380    9.0510   37.5780 N   0  0  0  0  0  0  0  0  0  0  0  0
   40.7930    9.6260   38.3230 H   0  0  0  0  0  0  0  0  0  0  0  0
   40.8000    7.7780   37.3510 C   0  0  0  0  0  0  0  0  0  0  0  0
   41.5980    7.1060   37.9810 O   0  0  0  0  0  0  0  0  0  0  0  0
   40.0450    7.2960   36.1610 C   0  0  0  0  0  0  0  0  0  0  0  0
   40.2690    6.0100   35.7160 N   0  0  0  0  0  0  0  0  0  0  0  0
   40.8920    5.5030   36.3520 H   0  0  0  0  0  0  0  0  0  0  0  0
   40.5090    5.6110   34.3820 C   0  0  0  0  0  0  0  0  0  0  0  0
   40.4890    4.2420   34.0890 C   0  0  0  0  0  0  0  0  0  0  0  0
   40.3060    3.5640   34.8450 H   0  0  0  0  0  0  0  0  0  0  0  0
   40.7130    3.7780   32.7880 C   0  0  0  0  0  0  0  0  0  0  0  0
   40.6990    2.7640   32.5970 H   0  0  0  0  0  0  0  0  0  0  0  0
   40.9550    4.6760   31.7470 C   0  0  0  0  0  0  0  0  0  0  0  0
   41.2680    4.0330   30.1130 S   0  0  0  0  0  0  0  0  0  0  0  0
   40.1750    5.0840   29.1200 C   0  0  0  0  0  0  0  0  0  0  0  0
   39.1640    4.9550   29.4450 H   0  0  0  0  0  0  0  0  0  0  0  0
   40.4600    6.1080   29.2400 H   0  0  0  0  0  0  0  0  0  0  0  0
   40.2560    4.8090   28.0890 H   0  0  0  0  0  0  0  0  0  0  0  0
   40.9900    6.0420   32.0320 C   0  0  0  0  0  0  0  0  0  0  0  0
   41.1850    6.7170   31.2770 H   0  0  0  0  0  0  0  0  0  0  0  0
   40.7620    6.5040   33.3350 C   0  0  0  0  0  0  0  0  0  0  0  0
   40.7810    7.5180   33.5250 H   0  0  0  0  0  0  0  0  0  0  0  0
   38.9490   10.5250   36.6670 O   0  0  0  0  0  0  0  0  0  0  0  0
   37.9910    9.4090   33.9330 C   0  0  0  0  0  0  0  0  0  0  0  0
   38.5810   10.2450   34.0700 H   0  0  0  0  0  0  0  0  0  0  0  0
   37.0090    9.4140   32.9370 C   0  0  0  0  0  0  0  0  0  0  0  0
   36.8770   10.2470   32.3420 H   0  0  0  0  0  0  0  0  0  0  0  0
   36.2060    8.2820   32.7520 C   0  0  0  0  0  0  0  0  0  0  0  0
   35.1780    8.2800   31.7060 N   0  0  0  0  0  0  0  0  0  0  0  0
   34.9590    9.3440   31.1100 O   0  0  0  0  0  0  0  0  0  0  0  0
   34.5920    7.2120   31.4760 O   0  0  0  0  0  0  0  0  0  0  0  0
   36.3790    7.1530   33.5590 C   0  0  0  0  0  0  0  0  0  0  0  0
   35.7860    6.3200   33.4210 H   0  0  0  0  0  0  0  0  0  0  0  0
   37.3620    7.1620   34.5540 C   0  0  0  0  0  0  0  0  0  0  0  0
   37.4840    6.3320   35.1550 H   0  0  0  0  0  0  0  0  0  0  0  0
  1  2  1  0  0  0  0
  2  8  2  0  0  0  0
  2  3  1  0  0  0  0
  3  4  1  0  0  0  0
  4  5  1  0  0  0  0
  6  4  1  0  0  0  0
  6  7  2  0  0  0  0
  8  6  1  0  0  0  0
  9  8  1  0  0  0  0
  9 10  1  0  0  0  0
 11  9  1  0  0  0  0
 12 11  1  0  0  0  0
 12 13  1  0  0  0  0
 14 12  2  0  0  0  0
 15 14  1  0  0  0  0
 16 22  2  0  0  0  0
 16 14  1  0  0  0  0
 17 16  1  0  0  0  0
 18 20  1  0  0  0  0
 18 19  1  0  0  0  0
 18 17  1  0  0  0  0
 21 18  1  0  0  0  0
 22 24  1  0  0  0  0
 23 22  1  0  0  0  0
 24 25  1  0  0  0  0
 24 11  2  0  0  0  0
 26  3  2  0  0  0  0
 27 28  1  0  0  0  0
 27  1  2  0  0  0  0
 29 27  1  0  0  0  0
 30 29  1  0  0  0  0
 31 29  2  0  0  0  0
 31 35  1  0  0  0  0
 32 31  1  0  0  0  0
 33 32  2  0  0  0  0
 34 32  2  0  0  0  0
 35 37  2  0  0  0  0
 36 35  1  0  0  0  0
 37  1  1  0  0  0  0
 37 38  1  0  0  0  0
M  END
>  <REMARK>
 38                     

$$$$
mol65.pdb
 OpenBabel11251619293D

 35 37  0  0  0  0  0  0  0  0999 V2000
   39.2630    8.2080   35.8390 C   0  0  0  0  0  0  0  0  0  0  0  0
   39.3500    9.3640   36.7710 C   0  0  0  0  0  0  0  0  0  0  0  0
   40.2660    9.0750   37.7050 N   0  0  0  0  0  0  0  0  0  0  0  0
   40.5580    9.7060   38.4310 H   0  0  0  0  0  0  0  0  0  0  0  0
   40.8610    7.9040   37.4310 C   0  0  0  0  0  0  0  0  0  0  0  0
   41.8200    7.4600   38.0400 O   0  0  0  0  0  0  0  0  0  0  0  0
   40.1750    7.2900   36.2360 C   0  0  0  0  0  0  0  0  0  0  0  0
   40.5300    6.0090   35.7820 N   0  0  0  0  0  0  0  0  0  0  0  0
   41.4130    5.1440   36.5910 C   0  0  0  0  0  0  0  0  0  0  0  0
   42.3550    5.6310   36.7360 H   0  0  0  0  0  0  0  0  0  0  0  0
   40.9580    4.9590   37.5410 H   0  0  0  0  0  0  0  0  0  0  0  0
   41.5670    4.2150   36.0820 H   0  0  0  0  0  0  0  0  0  0  0  0
   40.5350    5.6200   34.4080 C   0  0  0  0  0  0  0  0  0  0  0  0
   40.2450    4.2920   34.0390 C   0  0  0  0  0  0  0  0  0  0  0  0
   40.0100    3.6060   34.7730 H   0  0  0  0  0  0  0  0  0  0  0  0
   40.2670    3.8790   32.7030 C   0  0  0  0  0  0  0  0  0  0  0  0
   40.0710    2.8950   32.4630 H   0  0  0  0  0  0  0  0  0  0  0  0
   40.5540    4.7970   31.6990 C   0  0  0  0  0  0  0  0  0  0  0  0
   40.5670    4.4990   30.7110 H   0  0  0  0  0  0  0  0  0  0  0  0
   40.8230    6.1200   32.0350 C   0  0  0  0  0  0  0  0  0  0  0  0
   41.0240    6.8070   31.2920 H   0  0  0  0  0  0  0  0  0  0  0  0
   40.8230    6.5250   33.3750 C   0  0  0  0  0  0  0  0  0  0  0  0
   41.0390    7.5070   33.6070 H   0  0  0  0  0  0  0  0  0  0  0  0
   38.7180   10.4030   36.7090 O   0  0  0  0  0  0  0  0  0  0  0  0
   38.2940    8.1780   34.7320 C   0  0  0  0  0  0  0  0  0  0  0  0
   38.0970    9.3230   33.9420 C   0  0  0  0  0  0  0  0  0  0  0  0
   38.6470   10.1740   34.1370 H   0  0  0  0  0  0  0  0  0  0  0  0
   37.1690    9.3290   32.8970 C   0  0  0  0  0  0  0  0  0  0  0  0
   37.0350   10.1810   32.3300 H   0  0  0  0  0  0  0  0  0  0  0  0
   36.4270    8.1860   32.6230 C   0  0  0  0  0  0  0  0  0  0  0  0
   35.7460    8.1850   31.8480 H   0  0  0  0  0  0  0  0  0  0  0  0
   36.6060    7.0420   33.3980 C   0  0  0  0  0  0  0  0  0  0  0  0
   36.0580    6.1920   33.1930 H   0  0  0  0  0  0  0  0  0  0  0  0
   37.5250    7.0410   34.4520 C   0  0  0  0  0  0  0  0  0  0  0  0
   37.6380    6.1930   35.0300 H   0  0  0  0  0  0  0  0  0  0  0  0
  1  7  2  0  0  0  0
  1  2  1  0  0  0  0
  2  3  1  0  0  0  0
  3  4  1  0  0  0  0
  5  3  1  0  0  0  0
  5  6  2  0  0  0  0
  7  5  1  0  0  0  0
  8  7  1  0  0  0  0
  8  9  1  0  0  0  0
  9 10  1  0  0  0  0
  9 11  1  0  0  0  0
 12  9  1  0  0  0  0
 13  8  1  0  0  0  0
 14 13  1  0  0  0  0
 14 15  1  0  0  0  0
 16 14  2  0  0  0  0
 17 16  1  0  0  0  0
 18 20  2  0  0  0  0
 18 16  1  0  0  0  0
 19 18  1  0  0  0  0
 20 22  1  0  0  0  0
 21 20  1  0  0  0  0
 22 23  1  0  0  0  0
 22 13  2  0  0  0  0
 24  2  2  0  0  0  0
 25  1  1  0  0  0  0
 26 27  1  0  0  0  0
 26 25  2  0  0  0  0
 28 26  1  0  0  0  0
 29 28  1  0  0  0  0
 30 28  2  0  0  0  0
 30 32  1  0  0  0  0
 31 30  1  0  0  0  0
 32 34  2  0  0  0  0
 33 32  1  0  0  0  0
 34 25  1  0  0  0  0
 34 35  1  0  0  0  0
M  END
>  <REMARK>
 35                     

$$$$
mol66.pdb
 OpenBabel11251619293D

 37 39  0  0  0  0  0  0  0  0999 V2000
   38.3090    8.1550   34.7320 C   0  0  0  0  0  0  0  0  0  0  0  0
   39.2790    8.2070   35.8370 C   0  0  0  0  0  0  0  0  0  0  0  0
   39.3770    9.3750   36.7470 C   0  0  0  0  0  0  0  0  0  0  0  0
   40.3200    9.1090   37.6620 N   0  0  0  0  0  0  0  0  0  0  0  0
   40.5990    9.7360   38.3960 H   0  0  0  0  0  0  0  0  0  0  0  0
   40.8640    7.9010   37.4410 C   0  0  0  0  0  0  0  0  0  0  0  0
   41.7700    7.4190   38.0990 O   0  0  0  0  0  0  0  0  0  0  0  0
   40.1820    7.2880   36.2460 C   0  0  0  0  0  0  0  0  0  0  0  0
   40.5170    6.0050   35.7880 N   0  0  0  0  0  0  0  0  0  0  0  0
   41.3980    5.1210   36.5760 C   0  0  0  0  0  0  0  0  0  0  0  0
   42.3490    5.5930   36.7100 H   0  0  0  0  0  0  0  0  0  0  0  0
   40.9540    4.9350   37.5320 H   0  0  0  0  0  0  0  0  0  0  0  0
   41.5290    4.1940   36.0580 H   0  0  0  0  0  0  0  0  0  0  0  0
   40.5270    5.6450   34.4090 C   0  0  0  0  0  0  0  0  0  0  0  0
   40.1240    4.3570   34.0090 C   0  0  0  0  0  0  0  0  0  0  0  0
   39.8180    3.6790   34.7240 H   0  0  0  0  0  0  0  0  0  0  0  0
   40.1290    3.9780   32.6650 C   0  0  0  0  0  0  0  0  0  0  0  0
   39.8380    3.0250   32.3960 H   0  0  0  0  0  0  0  0  0  0  0  0
   40.5260    4.8860   31.6890 C   0  0  0  0  0  0  0  0  0  0  0  0
   40.5280    4.6100   30.6950 H   0  0  0  0  0  0  0  0  0  0  0  0
   40.9200    6.1690   32.0590 C   0  0  0  0  0  0  0  0  0  0  0  0
   41.2090    6.8470   31.3360 H   0  0  0  0  0  0  0  0  0  0  0  0
   40.9260    6.5430   33.4070 C   0  0  0  0  0  0  0  0  0  0  0  0
   41.2290    7.4940   33.6690 H   0  0  0  0  0  0  0  0  0  0  0  0
   38.7150   10.3960   36.6830 O   0  0  0  0  0  0  0  0  0  0  0  0
   38.1400    9.2700   33.8950 C   0  0  0  0  0  0  0  0  0  0  0  0
   38.7080   10.1180   34.0470 H   0  0  0  0  0  0  0  0  0  0  0  0
   37.2020    9.2360   32.8530 C   0  0  0  0  0  0  0  0  0  0  0  0
   37.0350   10.4120   31.9880 N   0  0  0  0  0  0  0  0  0  0  0  0
   37.8000   11.3710   32.1610 O   0  0  0  0  0  0  0  0  0  0  0  0
   36.1420   10.3730   31.1290 O   0  0  0  0  0  0  0  0  0  0  0  0
   36.4260    8.0950   32.6270 C   0  0  0  0  0  0  0  0  0  0  0  0
   35.7440    8.0730   31.8530 H   0  0  0  0  0  0  0  0  0  0  0  0
   36.5850    6.9870   33.4600 C   0  0  0  0  0  0  0  0  0  0  0  0
   36.0180    6.1390   33.3030 H   0  0  0  0  0  0  0  0  0  0  0  0
   37.5120    7.0220   34.5080 C   0  0  0  0  0  0  0  0  0  0  0  0
   37.6110    6.2010   35.1260 H   0  0  0  0  0  0  0  0  0  0  0  0
  1  2  1  0  0  0  0
  2  8  2  0  0  0  0
  2  3  1  0  0  0  0
  3  4  1  0  0  0  0
  4  5  1  0  0  0  0
  6  4  1  0  0  0  0
  6  7  2  0  0  0  0
  8  6  1  0  0  0  0
  9  8  1  0  0  0  0
  9 10  1  0  0  0  0
 10 11  1  0  0  0  0
 10 12  1  0  0  0  0
 13 10  1  0  0  0  0
 14  9  1  0  0  0  0
 15 14  1  0  0  0  0
 15 16  1  0  0  0  0
 17 15  2  0  0  0  0
 18 17  1  0  0  0  0
 19 21  2  0  0  0  0
 19 17  1  0  0  0  0
 20 19  1  0  0  0  0
 21 23  1  0  0  0  0
 22 21  1  0  0  0  0
 23 24  1  0  0  0  0
 23 14  2  0  0  0  0
 25  3  2  0  0  0  0
 26 27  1  0  0  0  0
 26  1  2  0  0  0  0
 28 26  1  0  0  0  0
 29 30  2  0  0  0  0
 29 28  1  0  0  0  0
 31 29  2  0  0  0  0
 32 28  2  0  0  0  0
 32 34  1  0  0  0  0
 33 32  1  0  0  0  0
 34 36  2  0  0  0  0
 35 34  1  0  0  0  0
 36  1  1  0  0  0  0
 36 37  1  0  0  0  0
M  END
>  <REMARK>
 37                     

$$$$
mol67.pdb
 OpenBabel11251619293D

 35 37  0  0  0  0  0  0  0  0999 V2000
   38.2950    8.1380   34.7450 C   0  0  0  0  0  0  0  0  0  0  0  0
   39.2660    8.2030   35.8470 C   0  0  0  0  0  0  0  0  0  0  0  0
   39.3930    9.3840   36.7360 C   0  0  0  0  0  0  0  0  0  0  0  0
   40.3130    9.0970   37.6710 N   0  0  0  0  0  0  0  0  0  0  0  0
   40.6210    9.7360   38.3820 H   0  0  0  0  0  0  0  0  0  0  0  0
   40.8610    7.8910   37.4400 C   0  0  0  0  0  0  0  0  0  0  0  0
   41.7910    7.4180   38.0700 O   0  0  0  0  0  0  0  0  0  0  0  0
   40.1600    7.2780   36.2590 C   0  0  0  0  0  0  0  0  0  0  0  0
   40.4740    5.9910   35.8030 N   0  0  0  0  0  0  0  0  0  0  0  0
   41.3300    5.0840   36.5890 C   0  0  0  0  0  0  0  0  0  0  0  0
   40.9840    4.0780   36.4740 H   0  0  0  0  0  0  0  0  0  0  0  0
   42.3400    5.1560   36.2420 H   0  0  0  0  0  0  0  0  0  0  0  0
   41.2870    5.3590   37.6220 H   0  0  0  0  0  0  0  0  0  0  0  0
   40.5070    5.6520   34.4180 C   0  0  0  0  0  0  0  0  0  0  0  0
   40.0630    4.3900   33.9850 C   0  0  0  0  0  0  0  0  0  0  0  0
   39.7190    3.7090   34.6800 H   0  0  0  0  0  0  0  0  0  0  0  0
   40.0780    4.0400   32.6320 C   0  0  0  0  0  0  0  0  0  0  0  0
   39.7510    3.1070   32.3370 H   0  0  0  0  0  0  0  0  0  0  0  0
   40.5340    4.9510   31.6830 C   0  0  0  0  0  0  0  0  0  0  0  0
   40.5450    4.6960   30.6830 H   0  0  0  0  0  0  0  0  0  0  0  0
   40.9750    6.2070   32.0890 C   0  0  0  0  0  0  0  0  0  0  0  0
   41.3110    6.8850   31.3870 H   0  0  0  0  0  0  0  0  0  0  0  0
   40.9650    6.5540   33.4430 C   0  0  0  0  0  0  0  0  0  0  0  0
   41.2990    7.4870   33.7310 H   0  0  0  0  0  0  0  0  0  0  0  0
   38.7860   10.4350   36.6380 O   0  0  0  0  0  0  0  0  0  0  0  0
   38.1480    9.2260   33.8700 C   0  0  0  0  0  0  0  0  0  0  0  0
   38.7250   10.0710   34.0070 H   0  0  0  0  0  0  0  0  0  0  0  0
   37.2310    9.1800   32.8160 C   0  0  0  0  0  0  0  0  0  0  0  0
   37.1320    9.9870   32.1800 H   0  0  0  0  0  0  0  0  0  0  0  0
   36.4520    8.0430   32.6270 C   0  0  0  0  0  0  0  0  0  0  0  0
   35.3300    7.9810   31.3250 Cl  0  0  0  0  0  0  0  0  0  0  0  0
   36.5720    6.9580   33.4920 C   0  0  0  0  0  0  0  0  0  0  0  0
   35.9890    6.1180   33.3520 H   0  0  0  0  0  0  0  0  0  0  0  0
   37.4840    7.0100   34.5510 C   0  0  0  0  0  0  0  0  0  0  0  0
   37.5610    6.2090   35.1970 H   0  0  0  0  0  0  0  0  0  0  0  0
  1  2  1  0  0  0  0
  2  8  2  0  0  0  0
  2  3  1  0  0  0  0
  3  4  1  0  0  0  0
  4  5  1  0  0  0  0
  6  4  1  0  0  0  0
  6  7  2  0  0  0  0
  8  6  1  0  0  0  0
  9  8  1  0  0  0  0
  9 10  1  0  0  0  0
 10 13  1  0  0  0  0
 11 10  1  0  0  0  0
 12 10  1  0  0  0  0
 14  9  1  0  0  0  0
 15 14  1  0  0  0  0
 15 16  1  0  0  0  0
 17 15  2  0  0  0  0
 18 17  1  0  0  0  0
 19 21  2  0  0  0  0
 19 17  1  0  0  0  0
 20 19  1  0  0  0  0
 21 23  1  0  0  0  0
 22 21  1  0  0  0  0
 23 24  1  0  0  0  0
 23 14  2  0  0  0  0
 25  3  2  0  0  0  0
 26 27  1  0  0  0  0
 26  1  2  0  0  0  0
 28 26  1  0  0  0  0
 29 28  1  0  0  0  0
 30 28  2  0  0  0  0
 30 32  1  0  0  0  0
 31 30  1  0  0  0  0
 32 34  2  0  0  0  0
 33 32  1  0  0  0  0
 34  1  1  0  0  0  0
 34 35  1  0  0  0  0
M  END
>  <REMARK>
 35                     

$$$$
mol68.pdb
 OpenBabel11251619293D

 36 39  0  0  0  0  0  0  0  0999 V2000
   40.1870    7.3720   36.1590 C   0  0  0  0  0  0  0  0  0  0  0  0
   40.4890    6.1460   35.6140 N   0  0  0  0  0  0  0  0  0  0  0  0
   40.8340    4.9270   36.3650 C   0  0  0  0  0  0  0  0  0  0  0  0
   41.8700    4.9230   36.6340 H   0  0  0  0  0  0  0  0  0  0  0  0
   40.2620    4.8770   37.2680 H   0  0  0  0  0  0  0  0  0  0  0  0
   40.4950    3.7300   35.4550 C   0  0  0  0  0  0  0  0  0  0  0  0
   39.5610    3.2570   35.6780 H   0  0  0  0  0  0  0  0  0  0  0  0
   41.2180    2.9470   35.5500 H   0  0  0  0  0  0  0  0  0  0  0  0
   40.5540    4.3700   34.1080 C   0  0  0  0  0  0  0  0  0  0  0  0
   40.5560    3.7620   32.8640 C   0  0  0  0  0  0  0  0  0  0  0  0
   40.5290    2.7340   32.7750 H   0  0  0  0  0  0  0  0  0  0  0  0
   40.5960    4.5790   31.7340 C   0  0  0  0  0  0  0  0  0  0  0  0
   40.5930    4.1540   30.7940 H   0  0  0  0  0  0  0  0  0  0  0  0
   40.6400    5.9740   31.8670 C   0  0  0  0  0  0  0  0  0  0  0  0
   40.6860    6.5670   31.0240 H   0  0  0  0  0  0  0  0  0  0  0  0
   40.6220    6.5690   33.1320 C   0  0  0  0  0  0  0  0  0  0  0  0
   40.6620    7.5960   33.2280 H   0  0  0  0  0  0  0  0  0  0  0  0
   40.5500    5.7620   34.2550 C   0  0  0  0  0  0  0  0  0  0  0  0
   40.8150    7.8260   37.4390 C   0  0  0  0  0  0  0  0  0  0  0  0
   40.3680    9.0710   37.6940 N   0  0  0  0  0  0  0  0  0  0  0  0
   40.5620    9.5710   38.5450 H   0  0  0  0  0  0  0  0  0  0  0  0
   39.3650    9.3860   36.8540 C   0  0  0  0  0  0  0  0  0  0  0  0
   38.5930   10.3190   36.9800 O   0  0  0  0  0  0  0  0  0  0  0  0
   39.3020    8.3300   35.8200 C   0  0  0  0  0  0  0  0  0  0  0  0
   38.3170    8.3120   34.7320 C   0  0  0  0  0  0  0  0  0  0  0  0
   38.2250    9.3280   33.7660 C   0  0  0  0  0  0  0  0  0  0  0  0
   39.3160   10.6710   33.7330 Cl  0  0  0  0  0  0  0  0  0  0  0  0
   37.2750    9.2490   32.7400 C   0  0  0  0  0  0  0  0  0  0  0  0
   37.2120   10.0050   32.0400 H   0  0  0  0  0  0  0  0  0  0  0  0
   36.4140    8.1560   32.6590 C   0  0  0  0  0  0  0  0  0  0  0  0
   35.7180    8.1000   31.8990 H   0  0  0  0  0  0  0  0  0  0  0  0
   36.4950    7.1400   33.6060 C   0  0  0  0  0  0  0  0  0  0  0  0
   35.8630    6.3260   33.5450 H   0  0  0  0  0  0  0  0  0  0  0  0
   37.4320    7.2220   34.6390 C   0  0  0  0  0  0  0  0  0  0  0  0
   37.4760    6.4710   35.3450 H   0  0  0  0  0  0  0  0  0  0  0  0
   41.5550    7.1710   38.1520 O   0  0  0  0  0  0  0  0  0  0  0  0
  1 19  1  0  0  0  0
  2  1  1  0  0  0  0
  2  3  1  0  0  0  0
  3  4  1  0  0  0  0
  3  5  1  0  0  0  0
  6  8  1  0  0  0  0
  6  7  1  0  0  0  0
  6  3  1  0  0  0  0
  9 18  1  0  0  0  0
  9  6  1  0  0  0  0
 10  9  2  0  0  0  0
 11 10  1  0  0  0  0
 12 14  2  0  0  0  0
 12 10  1  0  0  0  0
 13 12  1  0  0  0  0
 14 16  1  0  0  0  0
 15 14  1  0  0  0  0
 16 17  1  0  0  0  0
 16 18  2  0  0  0  0
 18  2  1  0  0  0  0
 19 20  1  0  0  0  0
 19 36  2  0  0  0  0
 20 21  1  0  0  0  0
 22 23  2  0  0  0  0
 22 20  1  0  0  0  0
 24  1  2  0  0  0  0
 24 22  1  0  0  0  0
 25 24  1  0  0  0  0
 26 25  2  0  0  0  0
 27 26  1  0  0  0  0
 28 26  1  0  0  0  0
 29 28  1  0  0  0  0
 30 28  2  0  0  0  0
 30 32  1  0  0  0  0
 31 30  1  0  0  0  0
 32 34  2  0  0  0  0
 33 32  1  0  0  0  0
 34 25  1  0  0  0  0
 34 35  1  0  0  0  0
M  END
>  <REMARK>
 36                     

$$$$
mol69.pdb
 OpenBabel11251619293D

 40 43  0  0  0  0  0  0  0  0999 V2000
   39.2850    8.3260   35.8100 C   0  0  0  0  0  0  0  0  0  0  0  0
   39.3980    9.4050   36.8170 C   0  0  0  0  0  0  0  0  0  0  0  0
   40.3920    9.0670   37.6610 N   0  0  0  0  0  0  0  0  0  0  0  0
   40.6060    9.5740   38.5010 H   0  0  0  0  0  0  0  0  0  0  0  0
   40.7980    7.8040   37.4210 C   0  0  0  0  0  0  0  0  0  0  0  0
   41.5230    7.1410   38.1420 O   0  0  0  0  0  0  0  0  0  0  0  0
   40.1500    7.3510   36.1510 C   0  0  0  0  0  0  0  0  0  0  0  0
   40.4160    6.1090   35.6170 N   0  0  0  0  0  0  0  0  0  0  0  0
   40.8410    4.9140   36.3650 C   0  0  0  0  0  0  0  0  0  0  0  0
   41.8760    4.9760   36.6300 H   0  0  0  0  0  0  0  0  0  0  0  0
   40.2770    4.8260   37.2700 H   0  0  0  0  0  0  0  0  0  0  0  0
   40.5760    3.7000   35.4550 C   0  0  0  0  0  0  0  0  0  0  0  0
   39.6640    3.1800   35.6630 H   0  0  0  0  0  0  0  0  0  0  0  0
   41.3350    2.9530   35.5630 H   0  0  0  0  0  0  0  0  0  0  0  0
   40.6270    4.3440   34.1110 C   0  0  0  0  0  0  0  0  0  0  0  0
   40.7010    3.7360   32.8670 C   0  0  0  0  0  0  0  0  0  0  0  0
   40.7410    2.7080   32.7800 H   0  0  0  0  0  0  0  0  0  0  0  0
   40.7200    4.5530   31.7380 C   0  0  0  0  0  0  0  0  0  0  0  0
   40.7730    4.1280   30.7990 H   0  0  0  0  0  0  0  0  0  0  0  0
   40.6680    5.9470   31.8690 C   0  0  0  0  0  0  0  0  0  0  0  0
   40.6960    6.5410   31.0250 H   0  0  0  0  0  0  0  0  0  0  0  0
   40.5790    6.5420   33.1330 C   0  0  0  0  0  0  0  0  0  0  0  0
   40.5500    7.5690   33.2260 H   0  0  0  0  0  0  0  0  0  0  0  0
   40.5310    5.7330   34.2570 C   0  0  0  0  0  0  0  0  0  0  0  0
   38.6720   10.3760   36.9320 O   0  0  0  0  0  0  0  0  0  0  0  0
   38.2850    8.3150   34.7360 C   0  0  0  0  0  0  0  0  0  0  0  0
   38.1860    9.3650   33.8050 C   0  0  0  0  0  0  0  0  0  0  0  0
   39.1180   10.3710   33.8920 O   0  0  0  0  0  0  0  0  0  0  0  0
   38.6640   11.6560   33.4780 C   0  0  0  0  0  0  0  0  0  0  0  0
   38.3570   11.6130   32.4540 H   0  0  0  0  0  0  0  0  0  0  0  0
   37.8360   11.9550   34.0860 H   0  0  0  0  0  0  0  0  0  0  0  0
   39.4580   12.3660   33.5830 H   0  0  0  0  0  0  0  0  0  0  0  0
   37.2270    9.3040   32.7870 C   0  0  0  0  0  0  0  0  0  0  0  0
   37.1620   10.0690   32.0970 H   0  0  0  0  0  0  0  0  0  0  0  0
   36.3570    8.2150   32.6990 C   0  0  0  0  0  0  0  0  0  0  0  0
   35.6520    8.1780   31.9460 H   0  0  0  0  0  0  0  0  0  0  0  0
   36.4400    7.1800   33.6250 C   0  0  0  0  0  0  0  0  0  0  0  0
   35.7960    6.3760   33.5620 H   0  0  0  0  0  0  0  0  0  0  0  0
   37.3950    7.2310   34.6380 C   0  0  0  0  0  0  0  0  0  0  0  0
   37.4500    6.4630   35.3250 H   0  0  0  0  0  0  0  0  0  0  0  0
  1  7  2  0  0  0  0
  1  2  1  0  0  0  0
  2 25  2  0  0  0  0
  2  3  1  0  0  0  0
  3  4  1  0  0  0  0
  5  3  1  0  0  0  0
  5  6  2  0  0  0  0
  7  5  1  0  0  0  0
  8  7  1  0  0  0  0
  8  9  1  0  0  0  0
  9 10  1  0  0  0  0
  9 11  1  0  0  0  0
 12 14  1  0  0  0  0
 12 13  1  0  0  0  0
 12  9  1  0  0  0  0
 15 24  1  0  0  0  0
 15 12  1  0  0  0  0
 16 15  2  0  0  0  0
 17 16  1  0  0  0  0
 18 20  2  0  0  0  0
 18 16  1  0  0  0  0
 19 18  1  0  0  0  0
 20 22  1  0  0  0  0
 21 20  1  0  0  0  0
 22 23  1  0  0  0  0
 22 24  2  0  0  0  0
 24  8  1  0  0  0  0
 26  1  1  0  0  0  0
 27 28  1  0  0  0  0
 27 26  2  0  0  0  0
 29 32  1  0  0  0  0
 29 28  1  0  0  0  0
 29 31  1  0  0  0  0
 30 29  1  0  0  0  0
 33 27  1  0  0  0  0
 34 33  1  0  0  0  0
 35 33  2  0  0  0  0
 35 37  1  0  0  0  0
 36 35  1  0  0  0  0
 37 39  2  0  0  0  0
 38 37  1  0  0  0  0
 39 26  1  0  0  0  0
 39 40  1  0  0  0  0
M  END
>  <REMARK>
 40                     

$$$$
mol60.pdb
 OpenBabel11251619293D

 40 42  0  0  0  0  0  0  0  0999 V2000
   38.1850    8.2880   34.7580 C   0  0  0  0  0  0  0  0  0  0  0  0
   39.2140    8.2890   35.8150 C   0  0  0  0  0  0  0  0  0  0  0  0
   39.4860    9.4180   36.7300 C   0  0  0  0  0  0  0  0  0  0  0  0
   40.4390    9.0340   37.5910 N   0  0  0  0  0  0  0  0  0  0  0  0
   40.8150    9.6220   38.3270 H   0  0  0  0  0  0  0  0  0  0  0  0
   40.8070    7.7700   37.3640 C   0  0  0  0  0  0  0  0  0  0  0  0
   41.6130    7.1010   38.0050 O   0  0  0  0  0  0  0  0  0  0  0  0
   40.0540    7.2850   36.1760 C   0  0  0  0  0  0  0  0  0  0  0  0
   40.2630    6.0220   35.6980 N   0  0  0  0  0  0  0  0  0  0  0  0
   40.3330    5.2960   36.4120 H   0  0  0  0  0  0  0  0  0  0  0  0
   40.5170    5.6160   34.3860 C   0  0  0  0  0  0  0  0  0  0  0  0
   40.5330    4.2560   34.0830 C   0  0  0  0  0  0  0  0  0  0  0  0
   40.3820    3.5710   34.8400 H   0  0  0  0  0  0  0  0  0  0  0  0
   40.7480    3.7970   32.7820 C   0  0  0  0  0  0  0  0  0  0  0  0
   40.7620    2.7820   32.5980 H   0  0  0  0  0  0  0  0  0  0  0  0
   40.9430    4.6840   31.7310 C   0  0  0  0  0  0  0  0  0  0  0  0
   41.2580    4.0330   30.1050 S   0  0  0  0  0  0  0  0  0  0  0  0
   40.2380    5.1330   29.0950 C   0  0  0  0  0  0  0  0  0  0  0  0
   39.2150    5.0500   29.3990 H   0  0  0  0  0  0  0  0  0  0  0  0
   40.5680    6.1430   29.2230 H   0  0  0  0  0  0  0  0  0  0  0  0
   40.3280    4.8570   28.0650 H   0  0  0  0  0  0  0  0  0  0  0  0
   40.9310    6.0430   32.0230 C   0  0  0  0  0  0  0  0  0  0  0  0
   41.0830    6.7260   31.2650 H   0  0  0  0  0  0  0  0  0  0  0  0
   40.7170    6.5000   33.3270 C   0  0  0  0  0  0  0  0  0  0  0  0
   40.7070    7.5160   33.5100 H   0  0  0  0  0  0  0  0  0  0  0  0
   38.9290   10.5090   36.7050 O   0  0  0  0  0  0  0  0  0  0  0  0
   38.0190    9.3840   33.8400 C   0  0  0  0  0  0  0  0  0  0  0  0
   38.6390   10.2030   33.9420 H   0  0  0  0  0  0  0  0  0  0  0  0
   37.0380    9.4030   32.7880 C   0  0  0  0  0  0  0  0  0  0  0  0
   36.8950   10.4800   31.8620 O   0  0  0  0  0  0  0  0  0  0  0  0
   35.8900   10.4430   30.7250 C   0  0  0  0  0  0  0  0  0  0  0  0
   36.1030    9.6100   30.0880 H   0  0  0  0  0  0  0  0  0  0  0  0
   34.9030   10.3430   31.1250 H   0  0  0  0  0  0  0  0  0  0  0  0
   35.9560   11.3500   30.1610 H   0  0  0  0  0  0  0  0  0  0  0  0
   36.2290    8.2700   32.7380 C   0  0  0  0  0  0  0  0  0  0  0  0
   35.5000    8.2200   32.0090 H   0  0  0  0  0  0  0  0  0  0  0  0
   36.3560    7.1840   33.6370 C   0  0  0  0  0  0  0  0  0  0  0  0
   35.7210    6.3750   33.5510 H   0  0  0  0  0  0  0  0  0  0  0  0
   37.3260    7.1930   34.6360 C   0  0  0  0  0  0  0  0  0  0  0  0
   37.4100    6.3940   35.2840 H   0  0  0  0  0  0  0  0  0  0  0  0
  1  2  1  0  0  0  0
  2  8  2  0  0  0  0
  2  3  1  0  0  0  0
  3  4  1  0  0  0  0
  4  5  1  0  0  0  0
  6  4  1  0  0  0  0
  6  7  2  0  0  0  0
  8  6  1  0  0  0  0
  9  8  1  0  0  0  0
  9 10  1  0  0  0  0
 11  9  1  0  0  0  0
 12 11  1  0  0  0  0
 12 13  1  0  0  0  0
 14 12  2  0  0  0  0
 15 14  1  0  0  0  0
 16 22  2  0  0  0  0
 16 14  1  0  0  0  0
 17 16  1  0  0  0  0
 18 20  1  0  0  0  0
 18 19  1  0  0  0  0
 18 17  1  0  0  0  0
 21 18  1  0  0  0  0
 22 24  1  0  0  0  0
 23 22  1  0  0  0  0
 24 25  1  0  0  0  0
 24 11  2  0  0  0  0
 26  3  2  0  0  0  0
 27 28  1  0  0  0  0
 27  1  2  0  0  0  0
 29 27  1  0  0  0  0
 30 29  1  0  0  0  0
 31 33  1  0  0  0  0
 31 30  1  0  0  0  0
 32 31  1  0  0  0  0
 34 31  1  0  0  0  0
 35 29  2  0  0  0  0
 35 37  1  0  0  0  0
 36 35  1  0  0  0  0
 37 39  2  0  0  0  0
 38 37  1  0  0  0  0
 39  1  1  0  0  0  0
 39 40  1  0  0  0  0
M  END
>  <REMARK>
 40                     

$$$$
mol71.pdb
 OpenBabel11251619293D

 36 39  0  0  0  0  0  0  0  0999 V2000
   39.2510    8.3040   35.8240 C   0  0  0  0  0  0  0  0  0  0  0  0
   39.4250    9.4130   36.7880 C   0  0  0  0  0  0  0  0  0  0  0  0
   40.3660    9.0370   37.6730 N   0  0  0  0  0  0  0  0  0  0  0  0
   40.6440    9.5800   38.4730 H   0  0  0  0  0  0  0  0  0  0  0  0
   40.7840    7.7820   37.4200 C   0  0  0  0  0  0  0  0  0  0  0  0
   41.5560    7.1370   38.1080 O   0  0  0  0  0  0  0  0  0  0  0  0
   40.1100    7.3230   36.1640 C   0  0  0  0  0  0  0  0  0  0  0  0
   40.3630    6.0770   35.6300 N   0  0  0  0  0  0  0  0  0  0  0  0
   40.8650    4.9040   36.3670 C   0  0  0  0  0  0  0  0  0  0  0  0
   41.8990    5.0230   36.6160 H   0  0  0  0  0  0  0  0  0  0  0  0
   40.3200    4.7820   37.2800 H   0  0  0  0  0  0  0  0  0  0  0  0
   40.6550    3.6800   35.4580 C   0  0  0  0  0  0  0  0  0  0  0  0
   39.7680    3.1180   35.6640 H   0  0  0  0  0  0  0  0  0  0  0  0
   41.4450    2.9670   35.5670 H   0  0  0  0  0  0  0  0  0  0  0  0
   40.6810    4.3310   34.1160 C   0  0  0  0  0  0  0  0  0  0  0  0
   40.8040    3.7320   32.8730 C   0  0  0  0  0  0  0  0  0  0  0  0
   40.8980    2.7080   32.7840 H   0  0  0  0  0  0  0  0  0  0  0  0
   40.7970    4.5530   31.7460 C   0  0  0  0  0  0  0  0  0  0  0  0
   40.8810    4.1350   30.8060 H   0  0  0  0  0  0  0  0  0  0  0  0
   40.6760    5.9420   31.8820 C   0  0  0  0  0  0  0  0  0  0  0  0
   40.6870    6.5400   31.0410 H   0  0  0  0  0  0  0  0  0  0  0  0
   40.5410    6.5270   33.1450 C   0  0  0  0  0  0  0  0  0  0  0  0
   40.4610    7.5510   33.2400 H   0  0  0  0  0  0  0  0  0  0  0  0
   40.5160    5.7140   34.2670 C   0  0  0  0  0  0  0  0  0  0  0  0
   38.8110   10.4640   36.7980 O   0  0  0  0  0  0  0  0  0  0  0  0
   38.2410    8.3010   34.7610 C   0  0  0  0  0  0  0  0  0  0  0  0
   38.1260    9.3850   33.8800 C   0  0  0  0  0  0  0  0  0  0  0  0
   38.7410   10.2060   33.9910 H   0  0  0  0  0  0  0  0  0  0  0  0
   37.1810    9.3560   32.8530 C   0  0  0  0  0  0  0  0  0  0  0  0
   37.0760   10.6760   31.7540 Cl  0  0  0  0  0  0  0  0  0  0  0  0
   36.3300    8.2640   32.7010 C   0  0  0  0  0  0  0  0  0  0  0  0
   35.6350    8.2500   31.9380 H   0  0  0  0  0  0  0  0  0  0  0  0
   36.4210    7.1910   33.5830 C   0  0  0  0  0  0  0  0  0  0  0  0
   35.7880    6.3830   33.4800 H   0  0  0  0  0  0  0  0  0  0  0  0
   37.3700    7.2100   34.6070 C   0  0  0  0  0  0  0  0  0  0  0  0
   37.4320    6.4120   35.2590 H   0  0  0  0  0  0  0  0  0  0  0  0
  1  7  2  0  0  0  0
  1  2  1  0  0  0  0
  2 25  2  0  0  0  0
  2  3  1  0  0  0  0
  3  4  1  0  0  0  0
  5  3  1  0  0  0  0
  5  6  2  0  0  0  0
  7  5  1  0  0  0  0
  8  7  1  0  0  0  0
  8  9  1  0  0  0  0
  9 10  1  0  0  0  0
  9 11  1  0  0  0  0
 12 14  1  0  0  0  0
 12 13  1  0  0  0  0
 12  9  1  0  0  0  0
 15 24  1  0  0  0  0
 15 12  1  0  0  0  0
 16 15  2  0  0  0  0
 17 16  1  0  0  0  0
 18 20  2  0  0  0  0
 18 16  1  0  0  0  0
 19 18  1  0  0  0  0
 20 22  1  0  0  0  0
 21 20  1  0  0  0  0
 22 23  1  0  0  0  0
 22 24  2  0  0  0  0
 24  8  1  0  0  0  0
 26  1  1  0  0  0  0
 27 28  1  0  0  0  0
 27 26  2  0  0  0  0
 29 27  1  0  0  0  0
 30 29  1  0  0  0  0
 31 29  2  0  0  0  0
 31 33  1  0  0  0  0
 32 31  1  0  0  0  0
 33 35  2  0  0  0  0
 34 33  1  0  0  0  0
 35 26  1  0  0  0  0
 35 36  1  0  0  0  0
M  END
>  <REMARK>
 36                     

$$$$
mol72.pdb
 OpenBabel11251619293D

 38 41  0  0  0  0  0  0  0  0999 V2000
   38.2290    8.3150   34.7570 C   0  0  0  0  0  0  0  0  0  0  0  0
   39.2450    8.3020   35.8170 C   0  0  0  0  0  0  0  0  0  0  0  0
   39.4370    9.4120   36.7780 C   0  0  0  0  0  0  0  0  0  0  0  0
   40.3890    9.0400   37.6500 N   0  0  0  0  0  0  0  0  0  0  0  0
   40.7450    9.6110   38.3690 H   0  0  0  0  0  0  0  0  0  0  0  0
   40.7880    7.7780   37.4040 C   0  0  0  0  0  0  0  0  0  0  0  0
   41.5570    7.1310   38.0930 O   0  0  0  0  0  0  0  0  0  0  0  0
   40.0970    7.3140   36.1580 C   0  0  0  0  0  0  0  0  0  0  0  0
   40.3380    6.0610   35.6330 N   0  0  0  0  0  0  0  0  0  0  0  0
   40.8750    4.9040   36.3760 C   0  0  0  0  0  0  0  0  0  0  0  0
   40.3630    4.7760   37.3070 H   0  0  0  0  0  0  0  0  0  0  0  0
   41.9120    5.0540   36.5910 H   0  0  0  0  0  0  0  0  0  0  0  0
   40.6950    3.6690   35.4760 C   0  0  0  0  0  0  0  0  0  0  0  0
   39.8200    3.0880   35.6820 H   0  0  0  0  0  0  0  0  0  0  0  0
   41.5000    2.9730   35.5930 H   0  0  0  0  0  0  0  0  0  0  0  0
   40.7140    4.3140   34.1320 C   0  0  0  0  0  0  0  0  0  0  0  0
   40.8670    3.7100   32.8930 C   0  0  0  0  0  0  0  0  0  0  0  0
   40.9900    2.6890   32.8120 H   0  0  0  0  0  0  0  0  0  0  0  0
   40.8500    4.5220   31.7620 C   0  0  0  0  0  0  0  0  0  0  0  0
   40.9570    4.1000   30.8260 H   0  0  0  0  0  0  0  0  0  0  0  0
   40.6880    5.9090   31.8870 C   0  0  0  0  0  0  0  0  0  0  0  0
   40.6900    6.5010   31.0420 H   0  0  0  0  0  0  0  0  0  0  0  0
   40.5240    6.4990   33.1460 C   0  0  0  0  0  0  0  0  0  0  0  0
   40.4140    7.5210   33.2330 H   0  0  0  0  0  0  0  0  0  0  0  0
   40.5110    5.6940   34.2720 C   0  0  0  0  0  0  0  0  0  0  0  0
   38.8210   10.4610   36.7940 O   0  0  0  0  0  0  0  0  0  0  0  0
   38.0770    9.4350   33.9270 C   0  0  0  0  0  0  0  0  0  0  0  0
   38.6710   10.2670   34.0680 H   0  0  0  0  0  0  0  0  0  0  0  0
   37.1160    9.4240   32.9040 C   0  0  0  0  0  0  0  0  0  0  0  0
   36.9870   10.5850   32.0170 N   0  0  0  0  0  0  0  0  0  0  0  0
   36.2550   10.4720   31.0230 O   0  0  0  0  0  0  0  0  0  0  0  0
   37.6270   11.6070   32.3050 O   0  0  0  0  0  0  0  0  0  0  0  0
   36.2900    8.3100   32.7070 C   0  0  0  0  0  0  0  0  0  0  0  0
   35.5880    8.3080   31.9500 H   0  0  0  0  0  0  0  0  0  0  0  0
   36.4260    7.2050   33.5430 C   0  0  0  0  0  0  0  0  0  0  0  0
   35.8180    6.3820   33.4120 H   0  0  0  0  0  0  0  0  0  0  0  0
   37.3850    7.2090   34.5590 C   0  0  0  0  0  0  0  0  0  0  0  0
   37.4750    6.3860   35.1750 H   0  0  0  0  0  0  0  0  0  0  0  0
  1  2  1  0  0  0  0
  2  8  2  0  0  0  0
  2  3  1  0  0  0  0
  3 26  2  0  0  0  0
  3  4  1  0  0  0  0
  4  5  1  0  0  0  0
  6  4  1  0  0  0  0
  6  7  2  0  0  0  0
  8  6  1  0  0  0  0
  9  8  1  0  0  0  0
  9 10  1  0  0  0  0
 10 12  1  0  0  0  0
 10 11  1  0  0  0  0
 13 15  1  0  0  0  0
 13 14  1  0  0  0  0
 13 10  1  0  0  0  0
 16 25  1  0  0  0  0
 16 13  1  0  0  0  0
 17 16  2  0  0  0  0
 18 17  1  0  0  0  0
 19 21  2  0  0  0  0
 19 17  1  0  0  0  0
 20 19  1  0  0  0  0
 21 23  1  0  0  0  0
 22 21  1  0  0  0  0
 23 24  1  0  0  0  0
 23 25  2  0  0  0  0
 25  9  1  0  0  0  0
 27 28  1  0  0  0  0
 27  1  2  0  0  0  0
 29 27  1  0  0  0  0
 30 32  2  0  0  0  0
 30 29  1  0  0  0  0
 31 30  2  0  0  0  0
 33 29  2  0  0  0  0
 33 35  1  0  0  0  0
 34 33  1  0  0  0  0
 35 37  2  0  0  0  0
 36 35  1  0  0  0  0
 37  1  1  0  0  0  0
 37 38  1  0  0  0  0
M  END
>  <REMARK>
 38                     

$$$$
mol73.pdb
 OpenBabel11251619293D

 36 39  0  0  0  0  0  0  0  0999 V2000
   40.0820    7.3050   36.1590 C   0  0  0  0  0  0  0  0  0  0  0  0
   40.3160    6.0480   35.6380 N   0  0  0  0  0  0  0  0  0  0  0  0
   40.8640    4.8970   36.3820 C   0  0  0  0  0  0  0  0  0  0  0  0
   41.8910    5.0590   36.6330 H   0  0  0  0  0  0  0  0  0  0  0  0
   40.3210    4.7570   37.2930 H   0  0  0  0  0  0  0  0  0  0  0  0
   40.7090    3.6610   35.4790 C   0  0  0  0  0  0  0  0  0  0  0  0
   39.8400    3.0680   35.6760 H   0  0  0  0  0  0  0  0  0  0  0  0
   41.5220    2.9760   35.6020 H   0  0  0  0  0  0  0  0  0  0  0  0
   40.7320    4.3080   34.1360 C   0  0  0  0  0  0  0  0  0  0  0  0
   40.9080    3.7070   32.8990 C   0  0  0  0  0  0  0  0  0  0  0  0
   41.0510    2.6880   32.8180 H   0  0  0  0  0  0  0  0  0  0  0  0
   40.8860    4.5210   31.7680 C   0  0  0  0  0  0  0  0  0  0  0  0
   41.0110    4.1030   30.8330 H   0  0  0  0  0  0  0  0  0  0  0  0
   40.6960    5.9030   31.8920 C   0  0  0  0  0  0  0  0  0  0  0  0
   40.6930    6.4950   31.0470 H   0  0  0  0  0  0  0  0  0  0  0  0
   40.5100    6.4900   33.1500 C   0  0  0  0  0  0  0  0  0  0  0  0
   40.3790    7.5100   33.2370 H   0  0  0  0  0  0  0  0  0  0  0  0
   40.5040    5.6830   34.2760 C   0  0  0  0  0  0  0  0  0  0  0  0
   40.7820    7.7700   37.3990 C   0  0  0  0  0  0  0  0  0  0  0  0
   40.3920    9.0340   37.6420 N   0  0  0  0  0  0  0  0  0  0  0  0
   40.6960    9.5840   38.4270 H   0  0  0  0  0  0  0  0  0  0  0  0
   39.4500    9.4170   36.7630 C   0  0  0  0  0  0  0  0  0  0  0  0
   38.8660   10.4850   36.7650 O   0  0  0  0  0  0  0  0  0  0  0  0
   39.2360    8.2980   35.8160 C   0  0  0  0  0  0  0  0  0  0  0  0
   38.2160    8.3110   34.7590 C   0  0  0  0  0  0  0  0  0  0  0  0
   38.0450    9.4420   33.9450 C   0  0  0  0  0  0  0  0  0  0  0  0
   38.6340   10.2750   34.0990 H   0  0  0  0  0  0  0  0  0  0  0  0
   37.0850    9.4520   32.9270 C   0  0  0  0  0  0  0  0  0  0  0  0
   36.9730   10.2860   32.3300 H   0  0  0  0  0  0  0  0  0  0  0  0
   36.2820    8.3340   32.7220 C   0  0  0  0  0  0  0  0  0  0  0  0
   35.1090    8.3420   31.4640 Cl  0  0  0  0  0  0  0  0  0  0  0  0
   36.4230    7.2100   33.5290 C   0  0  0  0  0  0  0  0  0  0  0  0
   35.8220    6.3850   33.3780 H   0  0  0  0  0  0  0  0  0  0  0  0
   37.3820    7.2020   34.5460 C   0  0  0  0  0  0  0  0  0  0  0  0
   37.4780    6.3700   35.1480 H   0  0  0  0  0  0  0  0  0  0  0  0
   41.5560    7.1240   38.0850 O   0  0  0  0  0  0  0  0  0  0  0  0
  1 19  1  0  0  0  0
  2  1  1  0  0  0  0
  2  3  1  0  0  0  0
  3  4  1  0  0  0  0
  3  5  1  0  0  0  0
  6  8  1  0  0  0  0
  6  7  1  0  0  0  0
  6  3  1  0  0  0  0
  9 18  1  0  0  0  0
  9  6  1  0  0  0  0
 10  9  2  0  0  0  0
 11 10  1  0  0  0  0
 12 14  2  0  0  0  0
 12 10  1  0  0  0  0
 13 12  1  0  0  0  0
 14 16  1  0  0  0  0
 15 14  1  0  0  0  0
 16 17  1  0  0  0  0
 16 18  2  0  0  0  0
 18  2  1  0  0  0  0
 19 20  1  0  0  0  0
 19 36  2  0  0  0  0
 20 21  1  0  0  0  0
 22 23  2  0  0  0  0
 22 20  1  0  0  0  0
 24  1  2  0  0  0  0
 24 22  1  0  0  0  0
 25 24  1  0  0  0  0
 26 27  1  0  0  0  0
 26 25  2  0  0  0  0
 28 26  1  0  0  0  0
 29 28  1  0  0  0  0
 30 28  2  0  0  0  0
 30 32  1  0  0  0  0
 31 30  1  0  0  0  0
 32 34  2  0  0  0  0
 33 32  1  0  0  0  0
 34 25  1  0  0  0  0
 34 35  1  0  0  0  0
M  END
>  <REMARK>
 36                     

$$$$
mol74.pdb
 OpenBabel11251619293D

 40 43  0  0  0  0  0  0  0  0999 V2000
   38.2120    8.3170   34.7580 C   0  0  0  0  0  0  0  0  0  0  0  0
   39.2370    8.3020   35.8090 C   0  0  0  0  0  0  0  0  0  0  0  0
   39.4700    9.4230   36.7480 C   0  0  0  0  0  0  0  0  0  0  0  0
   40.4110    9.0330   37.6260 N   0  0  0  0  0  0  0  0  0  0  0  0
   40.7220    9.5820   38.4100 H   0  0  0  0  0  0  0  0  0  0  0  0
   40.7770    7.7600   37.3940 C   0  0  0  0  0  0  0  0  0  0  0  0
   41.5340    7.1030   38.0880 O   0  0  0  0  0  0  0  0  0  0  0  0
   40.0710    7.2990   36.1560 C   0  0  0  0  0  0  0  0  0  0  0  0
   40.2840    6.0370   35.6380 N   0  0  0  0  0  0  0  0  0  0  0  0
   40.8110    4.8780   36.3860 C   0  0  0  0  0  0  0  0  0  0  0  0
   41.8340    5.0320   36.6580 H   0  0  0  0  0  0  0  0  0  0  0  0
   40.2500    4.7350   37.2860 H   0  0  0  0  0  0  0  0  0  0  0  0
   40.6650    3.6490   35.4720 C   0  0  0  0  0  0  0  0  0  0  0  0
   39.7870    3.0630   35.6470 H   0  0  0  0  0  0  0  0  0  0  0  0
   41.4690    2.9570   35.6080 H   0  0  0  0  0  0  0  0  0  0  0  0
   40.7210    4.3030   34.1340 C   0  0  0  0  0  0  0  0  0  0  0  0
   40.9230    3.7100   32.8980 C   0  0  0  0  0  0  0  0  0  0  0  0
   41.0640    2.6910   32.8140 H   0  0  0  0  0  0  0  0  0  0  0  0
   40.9300    4.5310   31.7710 C   0  0  0  0  0  0  0  0  0  0  0  0
   41.0760    4.1180   30.8360 H   0  0  0  0  0  0  0  0  0  0  0  0
   40.7400    5.9130   31.9000 C   0  0  0  0  0  0  0  0  0  0  0  0
   40.7570    6.5110   31.0590 H   0  0  0  0  0  0  0  0  0  0  0  0
   40.5270    6.4930   33.1570 C   0  0  0  0  0  0  0  0  0  0  0  0
   40.3940    7.5120   33.2470 H   0  0  0  0  0  0  0  0  0  0  0  0
   40.4970    5.6790   34.2780 C   0  0  0  0  0  0  0  0  0  0  0  0
   38.9010   10.5010   36.7500 O   0  0  0  0  0  0  0  0  0  0  0  0
   38.0340    9.4410   33.9420 C   0  0  0  0  0  0  0  0  0  0  0  0
   38.6250   10.2750   34.0840 H   0  0  0  0  0  0  0  0  0  0  0  0
   37.0620    9.4430   32.9350 C   0  0  0  0  0  0  0  0  0  0  0  0
   36.9500   10.2760   32.3360 H   0  0  0  0  0  0  0  0  0  0  0  0
   36.2430    8.3320   32.7310 C   0  0  0  0  0  0  0  0  0  0  0  0
   35.3410    8.4630   31.7130 O   0  0  0  0  0  0  0  0  0  0  0  0
   34.4350    7.3840   31.5160 C   0  0  0  0  0  0  0  0  0  0  0  0
   34.9850    6.4910   31.3030 H   0  0  0  0  0  0  0  0  0  0  0  0
   33.8530    7.2410   32.4020 H   0  0  0  0  0  0  0  0  0  0  0  0
   33.7860    7.6080   30.6950 H   0  0  0  0  0  0  0  0  0  0  0  0
   36.4010    7.2140   33.5470 C   0  0  0  0  0  0  0  0  0  0  0  0
   35.8000    6.3870   33.4080 H   0  0  0  0  0  0  0  0  0  0  0  0
   37.3730    7.2100   34.5550 C   0  0  0  0  0  0  0  0  0  0  0  0
   37.4740    6.3790   35.1590 H   0  0  0  0  0  0  0  0  0  0  0  0
  1  2  1  0  0  0  0
  2  8  2  0  0  0  0
  2  3  1  0  0  0  0
  3 26  2  0  0  0  0
  3  4  1  0  0  0  0
  4  5  1  0  0  0  0
  6  4  1  0  0  0  0
  6  7  2  0  0  0  0
  8  6  1  0  0  0  0
  9  8  1  0  0  0  0
  9 10  1  0  0  0  0
 10 11  1  0  0  0  0
 10 12  1  0  0  0  0
 13 15  1  0  0  0  0
 13 14  1  0  0  0  0
 13 10  1  0  0  0  0
 16 25  1  0  0  0  0
 16 13  1  0  0  0  0
 17 16  2  0  0  0  0
 18 17  1  0  0  0  0
 19 21  2  0  0  0  0
 19 17  1  0  0  0  0
 20 19  1  0  0  0  0
 21 23  1  0  0  0  0
 22 21  1  0  0  0  0
 23 24  1  0  0  0  0
 23 25  2  0  0  0  0
 25  9  1  0  0  0  0
 27 28  1  0  0  0  0
 27  1  2  0  0  0  0
 29 27  1  0  0  0  0
 30 29  1  0  0  0  0
 31 29  2  0  0  0  0
 31 37  1  0  0  0  0
 32 31  1  0  0  0  0
 33 32  1  0  0  0  0
 33 35  1  0  0  0  0
 34 33  1  0  0  0  0
 36 33  1  0  0  0  0
 37 39  2  0  0  0  0
 38 37  1  0  0  0  0
 39  1  1  0  0  0  0
 39 40  1  0  0  0  0
M  END
>  <REMARK>
 40                     

$$$$
