@<TRIPOS>MOLECULE
mol08.pdb
 29 30 0 0 0
SMALL
GASTEIGER

@<TRIPOS>ATOM
      1 N           0.4680    1.1090    0.0370 N.2     1  UNL1       -0.3209
      2 C          -0.6700    1.8530    0.1630 C.2     1  UNL1        0.3026
      3 N          -1.4220    4.2310    0.1330 N.2     1  UNL1       -0.3011
      4 N          -1.9270    1.3610    0.3330 N.2     1  UNL1       -0.0388
      5 C          -2.0230   -0.0350    0.3850 C.cat   1  UNL1        0.4150
      6 N          -0.9340   -0.8860    0.2620 N.pl3   1  UNL1        0.0075
      7 C           0.2980   -0.2690    0.0920 C.cat   1  UNL1        0.3446
      8 N           1.3610   -1.1520   -0.0200 N.pl3   1  UNL1       -0.2611
      9 N          -3.2410   -0.6290    0.5870 N.pl3   1  UNL1       -0.2378
     10 C           5.5120   -0.5010   -0.5070 C.ar    1  UNL1       -0.0616
     11 C           3.2600    0.4140   -0.4910 C.ar    1  UNL1       -0.0404
     12 C           3.6300   -1.9590   -0.0400 C.ar    1  UNL1       -0.0404
     13 C          -4.4920    0.1470    0.6680 C.3     1  UNL1        0.0468
     14 C          -0.4950    3.3520    0.1040 C.2     1  UNL1        0.0927
     15 C           4.6380    0.5800   -0.6480 C.ar    1  UNL1       -0.0600
     16 C           5.0010   -1.7680   -0.2030 C.ar    1  UNL1       -0.0600
     17 C           2.7550   -0.8580   -0.1840 C.ar    1  UNL1        0.0356
     18 H           0.5640    3.6650    0.0270 H       1  UNL1        0.0887
     19 H          -2.3960    3.9340    0.2050 H       1  UNL1        0.1862
     20 H          -3.3040   -1.6450    0.5790 H       1  UNL1        0.2442
     21 H           5.0310    1.5700   -0.8850 H       1  UNL1        0.0618
     22 H          -5.2450   -0.4180    1.2400 H       1  UNL1        0.0595
     23 H           5.6790   -2.6150   -0.0920 H       1  UNL1        0.0618
     24 H           1.1130   -2.1500    0.0590 H       1  UNL1        0.1572
     25 H           6.5830   -0.3600   -0.6320 H       1  UNL1        0.0618
     26 H           2.5960    1.2750   -0.6060 H       1  UNL1        0.0636
     27 H           3.2490   -2.9480    0.2000 H       1  UNL1        0.0636
     28 H          -4.8920    0.3690   -0.3390 H       1  UNL1        0.0595
     29 H          -4.3300    1.1190    1.1770 H       1  UNL1        0.0595
@<TRIPOS>BOND
     1     1     7    2
     2     1     2    2
     3     2     4    1
     4     3    19    1
     5     4     5    2
     6     5     9    1
     7     6     5    1
     8     7     6    1
     9     8    24    1
    10     8     7    1
    11     9    13    1
    12    10    16   ar
    13    11    17   ar
    14    12    27    1
    15    13    29    1
    16    13    22    1
    17    14     3    2
    18    14     2    1
    19    15    10   ar
    20    15    11   ar
    21    16    23    1
    22    16    12   ar
    23    17    12   ar
    24    17     8    1
    25    18    14    1
    26    20     9    1
    27    21    15    1
    28    25    10    1
    29    26    11    1
    30    28    13    1
