@<TRIPOS>MOLECULE
mol06.pdb
 38 39 0 0 0
SMALL
GASTEIGER

@<TRIPOS>ATOM
      1 N           0.4760    1.1110    0.1490 N.2     1  UNL1       -0.3209
      2 C          -0.6700    1.8530    0.1630 C.2     1  UNL1        0.3026
      3 N          -1.4220    4.2310    0.1330 N.2     1  UNL1       -0.3011
      4 N          -1.9360    1.3580    0.2230 N.2     1  UNL1       -0.0388
      5 C          -2.0360   -0.0360    0.2790 C.cat   1  UNL1        0.4152
      6 N          -0.9390   -0.8840    0.2420 N.pl3   1  UNL1        0.0075
      7 C           0.3030   -0.2670    0.1890 C.cat   1  UNL1        0.3446
      8 N           1.3720   -1.1490    0.1720 N.pl3   1  UNL1       -0.2611
      9 N          -3.2660   -0.6320    0.4310 N.pl3   1  UNL1       -0.2351
     10 C          -5.0110    0.1590   -1.1710 C.3     1  UNL1       -0.0243
     11 C          -6.3660    0.8660   -1.3070 C.3     1  UNL1       -0.0532
     12 C           5.5440   -0.4970   -0.0760 C.ar    1  UNL1       -0.0616
     13 C           3.3190    0.4260    0.2470 C.ar    1  UNL1       -0.0404
     14 C           3.6150   -1.9650   -0.1570 C.ar    1  UNL1       -0.0404
     15 C          -4.5380    0.1190    0.2900 C.3     1  UNL1        0.0581
     16 C          -0.4950    3.3530    0.1040 C.2     1  UNL1        0.0927
     17 C           4.7040    0.5930    0.1630 C.ar    1  UNL1       -0.0600
     18 C           4.9930   -1.7740   -0.2340 C.ar    1  UNL1       -0.0600
     19 C           2.7730   -0.8550    0.0840 C.ar    1  UNL1        0.0356
     20 C          -7.5290    0.0390   -0.7680 C.3     1  UNL1       -0.0652
     21 H           0.5650    3.6650    0.0280 H       1  UNL1        0.0887
     22 H          -2.3960    3.9340    0.2030 H       1  UNL1        0.1862
     23 H          -3.3120   -1.6500    0.3630 H       1  UNL1        0.2445
     24 H           5.1280    1.5900    0.2870 H       1  UNL1        0.0618
     25 H           5.6450   -2.6270   -0.4200 H       1  UNL1        0.0618
     26 H           1.1170   -2.1480    0.1840 H       1  UNL1        0.1572
     27 H          -5.0750   -0.8640   -1.5880 H       1  UNL1        0.0294
     28 H          -4.2550    0.6890   -1.7870 H       1  UNL1        0.0294
     29 H          -6.5430    1.0970   -2.3780 H       1  UNL1        0.0264
     30 H           6.6200   -0.3550   -0.1390 H       1  UNL1        0.0618
     31 H           2.6810    1.2950    0.4350 H       1  UNL1        0.0636
     32 H           3.2010   -2.9620   -0.2860 H       1  UNL1        0.0636
     33 H          -6.3330    1.8490   -0.7950 H       1  UNL1        0.0264
     34 H          -4.4090    1.1560    0.6830 H       1  UNL1        0.0632
     35 H          -5.2920   -0.3820    0.9390 H       1  UNL1        0.0632
     36 H          -8.4840    0.5570   -0.9190 H       1  UNL1        0.0230
     37 H          -7.4320   -0.1550    0.3050 H       1  UNL1        0.0230
     38 H          -7.6030   -0.9320   -1.2720 H       1  UNL1        0.0230
@<TRIPOS>BOND
     1     1     2    2
     2     1     7    2
     3     2     4    1
     4     3    22    1
     5     4     5    2
     6     5     9    1
     7     6     5    1
     8     7     6    1
     9     8    26    1
    10     8     7    1
    11    10    15    1
    12    11    10    1
    13    11    33    1
    14    11    20    1
    15    12    17   ar
    16    13    31    1
    17    14    19   ar
    18    15     9    1
    19    15    34    1
    20    15    35    1
    21    16     3    2
    22    16     2    1
    23    17    13   ar
    24    17    24    1
    25    18    14   ar
    26    18    12   ar
    27    19     8    1
    28    19    13   ar
    29    20    37    1
    30    21    16    1
    31    23     9    1
    32    25    18    1
    33    27    10    1
    34    28    10    1
    35    29    11    1
    36    30    12    1
    37    32    14    1
    38    36    20    1
    39    38    20    1
