@<TRIPOS>MOLECULE
mol09.pdb
 33 34 0 0 0
SMALL
GASTEIGER

@<TRIPOS>ATOM
      1 N           0.4670    1.1090    0.0440 N.2     1  UNL1       -0.3209
      2 C          -0.6700    1.8530    0.1630 C.2     1  UNL1        0.3026
      3 N          -1.4220    4.2310    0.1330 N.2     1  UNL1       -0.3011
      4 N          -1.9290    1.3600    0.3330 N.2     1  UNL1       -0.0388
      5 C          -2.0250   -0.0350    0.3700 C.cat   1  UNL1        0.4152
      6 N          -0.9360   -0.8850    0.2680 N.pl3   1  UNL1        0.0075
      7 C           0.2980   -0.2700    0.1000 C.cat   1  UNL1        0.3446
      8 N           1.3600   -1.1520   -0.0090 N.pl3   1  UNL1       -0.2611
      9 N          -3.2590   -0.6310    0.4880 N.pl3   1  UNL1       -0.2329
     10 C          -5.2470    0.3640   -0.6370 C.3     1  UNL1        0.0729
     11 O          -5.4970    1.7620   -0.7950 O.3     1  UNL1       -0.3921
     12 C           5.4960   -0.4950   -0.6030 C.ar    1  UNL1       -0.0616
     13 C           3.3100    0.4200   -0.0630 C.ar    1  UNL1       -0.0404
     14 C           3.5630   -1.9600   -0.5550 C.ar    1  UNL1       -0.0404
     15 C          -4.4950    0.1470    0.6940 C.3     1  UNL1        0.0811
     16 C          -0.4950    3.3530    0.1040 C.2     1  UNL1        0.0927
     17 C           4.6830    0.5890   -0.2630 C.ar    1  UNL1       -0.0600
     18 C           4.9300   -1.7670   -0.7460 C.ar    1  UNL1       -0.0600
     19 C           2.7490   -0.8560   -0.2120 C.ar    1  UNL1        0.0356
     20 H           0.5640    3.6650    0.0250 H       1  UNL1        0.0887
     21 H          -2.3960    3.9350    0.2030 H       1  UNL1        0.1862
     22 H          -3.3040   -1.6450    0.5840 H       1  UNL1        0.2446
     23 H           5.1190    1.5820   -0.1500 H       1  UNL1        0.0618
     24 H           5.5610   -2.6160   -1.0120 H       1  UNL1        0.0618
     25 H           1.1070   -2.1510    0.0210 H       1  UNL1        0.1572
     26 H          -6.1920   -0.2070   -0.6730 H       1  UNL1        0.0587
     27 H          -4.6240    0.1150   -1.5170 H       1  UNL1        0.0587
     28 H          -6.2230    2.0510   -0.2040 H       1  UNL1        0.2095
     29 H          -5.1600   -0.3710    1.4270 H       1  UNL1        0.0655
     30 H           6.5630   -0.3520   -0.7550 H       1  UNL1        0.0618
     31 H           2.6930    1.2840    0.2010 H       1  UNL1        0.0636
     32 H           3.1370   -2.9530   -0.6750 H       1  UNL1        0.0636
     33 H          -4.2300    1.1300    1.1460 H       1  UNL1        0.0655
@<TRIPOS>BOND
     1     1     7    2
     2     1     2    2
     3     2     4    1
     4     3    21    1
     5     4     5    2
     6     5     9    1
     7     6     5    1
     8     7     6    1
     9     8    25    1
    10     8     7    1
    11     9    22    1
    12     9    15    1
    13    10    15    1
    14    11    10    1
    15    11    28    1
    16    12    17   ar
    17    13    31    1
    18    14    19   ar
    19    15    33    1
    20    15    29    1
    21    16     3    2
    22    16     2    1
    23    17    23    1
    24    17    13   ar
    25    18    12   ar
    26    18    14   ar
    27    19    13   ar
    28    19     8    1
    29    20    16    1
    30    24    18    1
    31    26    10    1
    32    27    10    1
    33    30    12    1
    34    32    14    1
