@<TRIPOS>MOLECULE
mol02.pdb
 39 41 0 0 0
SMALL
GASTEIGER

@<TRIPOS>ATOM
      1 N           0.4750    1.1110    0.1080 N.2     1  UNL1       -0.3209
      2 C          -0.6700    1.8530    0.1630 C.2     1  UNL1        0.3026
      3 N          -1.4220    4.2310    0.1330 N.2     1  UNL1       -0.3011
      4 N          -1.9320    1.3590    0.2660 N.2     1  UNL1       -0.0388
      5 C          -2.0320   -0.0380    0.3170 C.cat   1  UNL1        0.4154
      6 N          -0.9320   -0.8850    0.2700 N.pl3   1  UNL1        0.0075
      7 C           0.3060   -0.2660    0.1640 C.cat   1  UNL1        0.3446
      8 N           1.3740   -1.1500    0.1200 N.pl3   1  UNL1       -0.2611
      9 N          -3.2600   -0.6340    0.4160 N.pl3   1  UNL1       -0.2325
     10 C           5.5470   -0.5240   -0.1700 C.ar    1  UNL1       -0.0616
     11 C           3.3100    0.4260   -0.1100 C.ar    1  UNL1       -0.0404
     12 C           3.6280   -1.9900    0.0560 C.ar    1  UNL1       -0.0404
     13 C          -4.5470    0.1130    0.4880 C.3     1  UNL1        0.0692
     14 C          -0.4950    3.3520    0.1040 C.2     1  UNL1        0.0927
     15 C           4.6950    0.5830   -0.2040 C.ar    1  UNL1       -0.0600
     16 C           5.0060   -1.8080   -0.0390 C.ar    1  UNL1       -0.0600
     17 C           2.7740   -0.8630    0.0210 C.ar    1  UNL1        0.0356
     18 C          -5.4830   -0.3550   -0.6510 C.3     1  UNL1       -0.0211
     19 C          -6.4090   -1.4290   -0.0560 C.3     1  UNL1       -0.0500
     20 C          -6.2810   -1.3540    1.4780 C.3     1  UNL1       -0.0500
     21 C          -5.2800   -0.2340    1.8040 C.3     1  UNL1       -0.0211
     22 H           1.1170   -2.1470    0.1760 H       1  UNL1        0.1572
     23 H           0.5640    3.6650    0.0290 H       1  UNL1        0.0887
     24 H          -2.3960    3.9340    0.2030 H       1  UNL1        0.1862
     25 H          -3.3060   -1.6540    0.4570 H       1  UNL1        0.2448
     26 H           5.1110    1.5860   -0.3060 H       1  UNL1        0.0618
     27 H          -4.3440    1.2120    0.4160 H       1  UNL1        0.0669
     28 H           5.6660   -2.6750   -0.0120 H       1  UNL1        0.0618
     29 H           6.6230   -0.3900   -0.2440 H       1  UNL1        0.0618
     30 H           2.6640    1.3090   -0.1400 H       1  UNL1        0.0636
     31 H           3.2240   -2.9940    0.1580 H       1  UNL1        0.0636
     32 H          -4.9230   -0.7330   -1.5230 H       1  UNL1        0.0297
     33 H          -6.0690    0.5050   -1.0220 H       1  UNL1        0.0297
     34 H          -6.1300   -2.4330   -0.4210 H       1  UNL1        0.0266
     35 H          -7.4520   -1.2680   -0.3760 H       1  UNL1        0.0266
     36 H          -5.9370   -2.3190    1.8880 H       1  UNL1        0.0266
     37 H          -7.2590   -1.1540    1.9480 H       1  UNL1        0.0266
     38 H          -4.5810   -0.5280    2.6060 H       1  UNL1        0.0297
     39 H          -5.8040    0.6640    2.1800 H       1  UNL1        0.0297
@<TRIPOS>BOND
     1     1     2    2
     2     1     7    2
     3     2     4    1
     4     3    24    1
     5     4     5    2
     6     5     9    1
     7     6     5    1
     8     7     6    1
     9     8     7    1
    10     8    22    1
    11     9    25    1
    12     9    13    1
    13    10    16   ar
    14    11    17   ar
    15    12    31    1
    16    13    21    1
    17    14     3    2
    18    14     2    1
    19    15    10   ar
    20    15    11   ar
    21    16    28    1
    22    16    12   ar
    23    17    12   ar
    24    17     8    1
    25    18    19    1
    26    18    13    1
    27    19    20    1
    28    20    21    1
    29    20    36    1
    30    20    37    1
    31    21    39    1
    32    21    38    1
    33    23    14    1
    34    26    15    1
    35    27    13    1
    36    29    10    1
    37    30    11    1
    38    32    18    1
    39    33    18    1
    40    34    19    1
    41    35    19    1
