@<TRIPOS>MOLECULE
mol07.pdb
 39 40 0 0 0
SMALL
GASTEIGER

@<TRIPOS>ATOM
      1 N           0.4720    1.1090    0.0960 N.2     1  UNL1       -0.3209
      2 C          -0.6700    1.8530    0.1630 C.2     1  UNL1        0.3026
      3 N          -1.4220    4.2310    0.1330 N.2     1  UNL1       -0.3011
      4 N          -1.9340    1.3590    0.2740 N.2     1  UNL1       -0.0388
      5 C          -2.0320   -0.0340    0.3330 C.cat   1  UNL1        0.4152
      6 N          -0.9410   -0.8840    0.2540 N.pl3   1  UNL1        0.0075
      7 C           0.3010   -0.2690    0.1460 C.cat   1  UNL1        0.3446
      8 N           1.3660   -1.1520    0.0880 N.pl3   1  UNL1       -0.2611
      9 N          -3.2580   -0.6290    0.5260 N.pl3   1  UNL1       -0.2351
     10 C          -5.0330    0.2560   -0.9920 C.3     1  UNL1       -0.0219
     11 C          -6.5610    0.1990   -1.0660 C.3     1  UNL1       -0.0270
     12 C           5.5360   -0.5030   -0.2000 C.ar    1  UNL1       -0.0616
     13 C           3.2850    0.4100   -0.3060 C.ar    1  UNL1       -0.0404
     14 C           3.6340   -1.9570    0.1910 C.ar    1  UNL1       -0.0404
     15 C          -4.5280    0.1320    0.4550 C.3     1  UNL1        0.0581
     16 C          -0.4950    3.3530    0.1040 C.2     1  UNL1        0.0927
     17 C           4.6700    0.5760   -0.3970 C.ar    1  UNL1       -0.0600
     18 C           5.0110   -1.7670    0.0930 C.ar    1  UNL1       -0.0600
     19 C           2.7670   -0.8590   -0.0090 C.ar    1  UNL1        0.0356
     20 C          -7.1300   -1.2110   -0.8930 C.3     1  UNL1        0.0443
     21 O          -6.1060   -2.2090   -0.9980 O.3     1  UNL1       -0.3950
     22 H           0.5650    3.6650    0.0290 H       1  UNL1        0.0887
     23 H          -2.3960    3.9340    0.2040 H       1  UNL1        0.1862
     24 H          -3.3110   -1.6460    0.4640 H       1  UNL1        0.2445
     25 H           5.0740    1.5630   -0.6250 H       1  UNL1        0.0618
     26 H           5.6830   -2.6110    0.2470 H       1  UNL1        0.0618
     27 H           1.1140   -2.1490    0.1590 H       1  UNL1        0.1572
     28 H          -4.5850   -0.5290   -1.6300 H       1  UNL1        0.0295
     29 H          -4.6810    1.2200   -1.4180 H       1  UNL1        0.0295
     30 H          -6.8960    0.5970   -2.0490 H       1  UNL1        0.0288
     31 H           6.6120   -0.3620   -0.2730 H       1  UNL1        0.0618
     32 H           2.6280    1.2700   -0.4630 H       1  UNL1        0.0636
     33 H           3.2420   -2.9440    0.4230 H       1  UNL1        0.0636
     34 H          -7.0070    0.8780   -0.3140 H       1  UNL1        0.0288
     35 H          -4.3830    1.1470    0.8990 H       1  UNL1        0.0632
     36 H          -5.2710   -0.3980    1.0940 H       1  UNL1        0.0632
     37 H          -7.8110   -1.4850   -1.7230 H       1  UNL1        0.0557
     38 H          -7.6560   -1.3440    0.0700 H       1  UNL1        0.0557
     39 H          -5.4390   -1.9510   -1.6620 H       1  UNL1        0.2094
@<TRIPOS>BOND
     1     1     7    2
     2     1     2    2
     3     2     4    1
     4     3    23    1
     5     4     5    2
     6     5     9    1
     7     6     5    1
     8     7     6    1
     9     8     7    1
    10     8    27    1
    11    10    15    1
    12    11    10    1
    13    11    20    1
    14    11    34    1
    15    12    18   ar
    16    13    19   ar
    17    14    33    1
    18    15     9    1
    19    15    35    1
    20    15    36    1
    21    16     3    2
    22    16     2    1
    23    17    13   ar
    24    17    12   ar
    25    18    14   ar
    26    18    26    1
    27    19     8    1
    28    19    14   ar
    29    20    38    1
    30    21    20    1
    31    22    16    1
    32    24     9    1
    33    25    17    1
    34    28    10    1
    35    29    10    1
    36    30    11    1
    37    31    12    1
    38    32    13    1
    39    37    20    1
    40    39    21    1
