@<TRIPOS>MOLECULE
mol19.pdb
 34 36 0 0 0
SMALL
GASTEIGER

@<TRIPOS>ATOM
      1 N           0.5070    1.1300    0.1050 N.2     1  UNL1       -0.0370
      2 C          -0.6700    1.8530    0.1630 C.2     1  UNL1        0.3736
      3 N          -1.4220    4.2310    0.1330 N.2     1  UNL1       -0.2995
      4 N          -1.9280    1.3590    0.2640 N.pl3   1  UNL1        0.0148
      5 C          -1.9800   -0.0150    0.3090 C.ar    1  UNL1        0.2678
      6 C          -0.8210   -0.8710    0.2590 C.ar    1  UNL1        0.1863
      7 C           0.4580   -0.2330    0.1530 C.3     1  UNL1        0.3354
      8 N           1.5970   -1.0330    0.1020 N.pl3   1  UNL1       -0.2896
      9 N          -1.2140   -2.2140    0.3300 N.ar    1  UNL1       -0.2296
     10 C          -2.5510   -2.1980    0.4210 C.ar    1  UNL1        0.0996
     11 N          -3.0770   -0.8690    0.4300 N.ar    1  UNL1       -0.2962
     12 C          -5.1360   -0.6300   -0.9280 C.3     1  UNL1       -0.0469
     13 F           5.1720    2.2010   -0.2380 F       1  UNL1       -0.2053
     14 F           6.1320   -2.3750   -0.1510 F       1  UNL1       -0.2053
     15 C           5.7350   -0.0680   -0.2000 C.ar    1  UNL1        0.0089
     16 C           3.3920    0.6940   -0.0720 C.ar    1  UNL1       -0.0053
     17 C           3.8990   -1.7000   -0.0260 C.ar    1  UNL1       -0.0053
     18 C          -4.5010   -0.4730    0.4490 C.3     1  UNL1        0.0250
     19 C          -0.4950    3.3520    0.1040 C.2     1  UNL1        0.1133
     20 C           4.7640    0.9360   -0.1700 C.ar    1  UNL1        0.1279
     21 C           5.2510   -1.3780   -0.1260 C.ar    1  UNL1        0.1279
     22 C           2.9600   -0.6390    0.0000 C.ar    1  UNL1        0.0363
     23 H           0.5640    3.6670    0.0280 H       1  UNL1        0.0906
     24 H          -2.3970    3.9400    0.2030 H       1  UNL1        0.1863
     25 H           1.4170   -2.0500    0.1470 H       1  UNL1        0.1510
     26 H          -3.1930   -3.0660    0.4940 H       1  UNL1        0.1030
     27 H          -6.1910   -0.3260   -0.9090 H       1  UNL1        0.0247
     28 H          -5.0980   -1.6630   -1.2930 H       1  UNL1        0.0247
     29 H          -4.6340   -0.0030   -1.6800 H       1  UNL1        0.0247
     30 H           6.7980    0.1540   -0.2770 H       1  UNL1        0.0675
     31 H           2.6810    1.5290   -0.0530 H       1  UNL1        0.0665
     32 H           3.5820   -2.7400    0.0290 H       1  UNL1        0.0665
     33 H          -4.5660    0.5910    0.7890 H       1  UNL1        0.0490
     34 H          -5.0320   -1.0940    1.2060 H       1  UNL1        0.0490
@<TRIPOS>BOND
     1     1     7    1
     2     1     2    2
     3     2     4    1
     4     3    24    1
     5     4     5    1
     6     5    11   ar
     7     6     5   ar
     8     6     9   ar
     9     7     8    1
    10     7     6    1
    11     8    25    1
    12     9    10   ar
    13    10    11   ar
    14    10    26    1
    15    11    18    1
    16    12    27    1
    17    12    18    1
    18    13    20    1
    19    14    21    1
    20    15    20   ar
    21    15    21   ar
    22    16    31    1
    23    16    22   ar
    24    17    22   ar
    25    17    32    1
    26    18    33    1
    27    18    34    1
    28    19     3    2
    29    19     2    1
    30    20    16   ar
    31    21    17   ar
    32    22     8    1
    33    23    19    1
    34    28    12    1
    35    29    12    1
    36    30    15    1
