@<TRIPOS>MOLECULE
mol14.pdb
 42 44 0 0 0
SMALL
GASTEIGER

@<TRIPOS>ATOM
      1 N           0.4760    1.1120    0.1160 N.2     1  UNL1       -0.3209
      2 C          -0.6700    1.8530    0.1630 C.2     1  UNL1        0.3026
      3 N          -1.4220    4.2310    0.1330 N.2     1  UNL1       -0.3011
      4 N          -1.9330    1.3580    0.2580 N.2     1  UNL1       -0.0388
      5 C          -2.0320   -0.0380    0.3090 C.cat   1  UNL1        0.4154
      6 N          -0.9310   -0.8840    0.2680 N.pl3   1  UNL1        0.0075
      7 C           0.3080   -0.2650    0.1710 C.cat   1  UNL1        0.3446
      8 N           1.3130   -1.2220    0.1910 N.pl3   1  UNL1       -0.2611
      9 N          -3.2600   -0.6360    0.4050 N.pl3   1  UNL1       -0.2325
     10 C           6.1060   -2.6350    0.4460 C.3     1  UNL1       -0.0397
     11 C           5.3640   -0.6120   -0.8530 C.ar    1  UNL1       -0.0587
     12 C           3.7050   -1.9420    0.3290 C.ar    1  UNL1       -0.0375
     13 C           3.0230    0.0290   -0.9440 C.ar    1  UNL1       -0.0404
     14 C          -4.5480    0.1100    0.4600 C.3     1  UNL1        0.0692
     15 C          -0.4950    3.3520    0.1040 C.2     1  UNL1        0.0927
     16 C           5.0410   -1.7050   -0.0390 C.ar    1  UNL1       -0.0487
     17 C           4.3530    0.2470   -1.2980 C.ar    1  UNL1       -0.0598
     18 C           2.7030   -1.0770   -0.1220 C.ar    1  UNL1        0.0358
     19 C          -5.4580   -0.3360   -0.7080 C.3     1  UNL1       -0.0211
     20 C          -6.3970   -1.4210   -0.1550 C.3     1  UNL1       -0.0500
     21 C          -6.3040   -1.3750    1.3830 C.3     1  UNL1       -0.0500
     22 C          -5.3100   -0.2620    1.7530 C.3     1  UNL1       -0.0211
     23 H           0.5640    3.6650    0.0280 H       1  UNL1        0.0887
     24 H          -2.3960    3.9340    0.2030 H       1  UNL1        0.1862
     25 H          -3.3050   -1.6560    0.4400 H       1  UNL1        0.2448
     26 H           4.6080    1.0970   -1.9310 H       1  UNL1        0.0618
     27 H          -4.3430    1.2100    0.4140 H       1  UNL1        0.0669
     28 H           1.0070   -2.1660    0.4720 H       1  UNL1        0.1572
     29 H           7.1090   -2.3560    0.1000 H       1  UNL1        0.0278
     30 H           3.4690   -2.8000    0.9640 H       1  UNL1        0.0639
     31 H           2.2520    0.7060   -1.2980 H       1  UNL1        0.0636
     32 H          -4.8780   -0.6970   -1.5740 H       1  UNL1        0.0297
     33 H          -6.0360    0.5310   -1.0750 H       1  UNL1        0.0297
     34 H          -6.1090   -2.4180   -0.5330 H       1  UNL1        0.0266
     35 H          -7.4330   -1.2540   -0.4950 H       1  UNL1        0.0266
     36 H          -5.9700   -2.3480    1.7820 H       1  UNL1        0.0266
     37 H          -7.2930   -1.1830    1.8340 H       1  UNL1        0.0266
     38 H          -4.6290   -0.5720    2.5630 H       1  UNL1        0.0297
     39 H          -5.8420    0.6280    2.1340 H       1  UNL1        0.0297
     40 H           5.9190   -3.6650    0.1070 H       1  UNL1        0.0278
     41 H           6.1380   -2.6600    1.5460 H       1  UNL1        0.0278
     42 H           6.3960   -0.4260   -1.1400 H       1  UNL1        0.0620
@<TRIPOS>BOND
     1     1     2    2
     2     1     7    2
     3     2     4    1
     4     3    24    1
     5     4     5    2
     6     5     9    1
     7     6     5    1
     8     7     8    1
     9     7     6    1
    10     8    28    1
    11     9    25    1
    12     9    14    1
    13    10    41    1
    14    11    16   ar
    15    12    30    1
    16    13    18   ar
    17    14    22    1
    18    15     3    2
    19    15     2    1
    20    16    12   ar
    21    16    10    1
    22    17    13   ar
    23    17    11   ar
    24    18     8    1
    25    18    12   ar
    26    19    20    1
    27    19    14    1
    28    20    21    1
    29    21    22    1
    30    21    36    1
    31    21    37    1
    32    22    39    1
    33    22    38    1
    34    23    15    1
    35    26    17    1
    36    27    14    1
    37    29    10    1
    38    31    13    1
    39    32    19    1
    40    33    19    1
    41    34    20    1
    42    35    20    1
    43    40    10    1
    44    42    11    1
