@<TRIPOS>MOLECULE
mol16.pdb
 49 52 0 0 0
SMALL
GASTEIGER

@<TRIPOS>ATOM
      1 N           0.4720    1.1100    0.0720 N.2     1  UNL1       -0.3209
      2 N          -1.4220    4.2310    0.1330 N.2     1  UNL1       -0.3011
      3 N          -1.9300    1.3590    0.3010 N.2     1  UNL1       -0.0388
      4 N          -0.9330   -0.8860    0.2620 N.pl3   1  UNL1        0.0075
      5 N           1.3780   -1.1360    0.0120 N.pl3   1  UNL1       -0.2611
      6 N          -3.2540   -0.6330    0.4910 N.pl3   1  UNL1       -0.2325
      7 C          -0.6700    1.8530    0.1630 C.2     1  UNL1        0.3026
      8 C          -2.0290   -0.0370    0.3500 C.cat   1  UNL1        0.4154
      9 C           0.3010   -0.2680    0.1250 C.cat   1  UNL1        0.3446
     10 C           5.0820    1.9630   -1.2540 C.ar    1  UNL1       -0.0178
     11 C           5.3040   -0.5200   -1.4350 C.ar    1  UNL1       -0.0539
     12 C           3.2170    0.4330   -0.6240 C.ar    1  UNL1       -0.0327
     13 C           3.4720   -1.9880   -0.8220 C.ar    1  UNL1       -0.0404
     14 C          -0.4950    3.3520    0.1040 C.2     1  UNL1        0.0927
     15 C           4.5260    0.5980   -1.1020 C.ar    1  UNL1       -0.0161
     16 C           4.7720   -1.8040   -1.2910 C.ar    1  UNL1       -0.0594
     17 C           2.6920   -0.8580   -0.4910 C.ar    1  UNL1        0.0362
     18 C           5.4660    2.6980   -0.1220 C.ar    1  UNL1       -0.0540
     19 C           5.9920    3.9840   -0.2700 C.ar    1  UNL1       -0.0612
     20 C           6.1390    4.5410   -1.5450 C.ar    1  UNL1       -0.0617
     21 C           5.7580    3.8080   -2.6750 C.ar    1  UNL1       -0.0612
     22 C           5.2280    2.5220   -2.5330 C.ar    1  UNL1       -0.0540
     23 C          -4.5370    0.1150    0.5990 C.3     1  UNL1        0.0692
     24 C          -5.4930   -0.3240   -0.5340 C.3     1  UNL1       -0.0211
     25 C          -6.4120   -1.4100    0.0490 C.3     1  UNL1       -0.0500
     26 C          -6.2590   -1.3710    1.5830 C.3     1  UNL1       -0.0500
     27 C          -5.2490   -0.2620    1.9190 C.3     1  UNL1       -0.0211
     28 H           0.5640    3.6650    0.0270 H       1  UNL1        0.0887
     29 H          -2.3960    3.9340    0.2050 H       1  UNL1        0.1862
     30 H          -3.3000   -1.6530    0.5240 H       1  UNL1        0.2448
     31 H           5.3760   -2.6730   -1.5520 H       1  UNL1        0.0618
     32 H           1.1860   -2.1120    0.2790 H       1  UNL1        0.1572
     33 H           2.6240    1.3170   -0.3620 H       1  UNL1        0.0642
     34 H           3.0710   -2.9940   -0.7240 H       1  UNL1        0.0636
     35 H           6.3170   -0.3860   -1.8110 H       1  UNL1        0.0624
     36 H           5.3460    2.2680    0.8720 H       1  UNL1        0.0624
     37 H           6.2850    4.5550    0.6100 H       1  UNL1        0.0618
     38 H           6.5490    5.5420   -1.6580 H       1  UNL1        0.0618
     39 H           5.8730    4.2410   -3.6660 H       1  UNL1        0.0618
     40 H           4.9300    1.9540   -3.4130 H       1  UNL1        0.0624
     41 H          -4.3330    1.2150    0.5510 H       1  UNL1        0.0669
     42 H          -4.9480   -0.6810   -1.4240 H       1  UNL1        0.0297
     43 H          -6.0830    0.5470   -0.8750 H       1  UNL1        0.0297
     44 H          -6.1400   -2.4050   -0.3430 H       1  UNL1        0.0266
     45 H          -7.4600   -1.2390   -0.2490 H       1  UNL1        0.0266
     46 H          -5.9110   -2.3470    1.9640 H       1  UNL1        0.0266
     47 H          -7.2290   -1.1800    2.0730 H       1  UNL1        0.0266
     48 H          -5.7650    0.6270    2.3260 H       1  UNL1        0.0297
     49 H          -4.5380   -0.5770    2.7020 H       1  UNL1        0.0297
@<TRIPOS>BOND
     1     1     9    2
     2     1     7    2
     3     2    29    1
     4     3     8    2
     5     4     8    1
     6     5     9    1
     7     5    32    1
     8     6    30    1
     9     6    23    1
    10     7     3    1
    11     8     6    1
    12     9     4    1
    13    10    15    1
    14    10    18   ar
    15    11    16   ar
    16    11    15   ar
    17    12    17   ar
    18    12    33    1
    19    13    34    1
    20    13    17   ar
    21    14     2    2
    22    14     7    1
    23    15    12   ar
    24    16    13   ar
    25    17     5    1
    26    18    36    1
    27    19    18   ar
    28    19    37    1
    29    20    19   ar
    30    21    22   ar
    31    21    20   ar
    32    22    10   ar
    33    23    27    1
    34    24    25    1
    35    24    23    1
    36    25    26    1
    37    26    27    1
    38    26    46    1
    39    26    47    1
    40    27    48    1
    41    27    49    1
    42    28    14    1
    43    31    16    1
    44    35    11    1
    45    38    20    1
    46    39    21    1
    47    40    22    1
    48    41    23    1
    49    42    24    1
    50    43    24    1
    51    44    25    1
    52    45    25    1
