@<TRIPOS>MOLECULE
mol13.pdb
 39 41 0 0 0
SMALL
GASTEIGER

@<TRIPOS>ATOM
      1 N           0.4700    1.1090    0.0480 N.2     1  UNL1       -0.3209
      2 C          -0.6700    1.8530    0.1630 C.2     1  UNL1        0.3026
      3 N          -1.4220    4.2310    0.1330 N.2     1  UNL1       -0.3011
      4 N          -1.9270    1.3600    0.3240 N.2     1  UNL1       -0.0388
      5 C          -2.0290   -0.0360    0.3750 C.cat   1  UNL1        0.4154
      6 N          -0.9330   -0.8860    0.2800 N.pl3   1  UNL1        0.0075
      7 C           0.2970   -0.2690    0.1130 C.cat   1  UNL1        0.3446
      8 N           1.3670   -1.1450    0.0130 N.pl3   1  UNL1       -0.2611
      9 N          -3.2530   -0.6300    0.5210 N.pl3   1  UNL1       -0.2325
     10 C           5.4730   -0.3660   -0.3140 C.ar    1  UNL1        0.1235
     11 C           3.2200    0.4020   -0.6270 C.ar    1  UNL1       -0.0377
     12 C           3.6690   -1.8080    0.3260 C.ar    1  UNL1       -0.0377
     13 C          -4.5310    0.1210    0.6680 C.3     1  UNL1        0.0692
     14 C          -0.4950    3.3530    0.1040 C.2     1  UNL1        0.0927
     15 C           4.5920    0.6330   -0.7360 C.ar    1  UNL1       -0.0247
     16 C           5.0410   -1.5870    0.2140 C.ar    1  UNL1       -0.0247
     17 C           2.7570   -0.8140   -0.0940 C.ar    1  UNL1        0.0358
     18 C          -5.5450   -0.3760   -0.3890 C.3     1  UNL1       -0.0211
     19 C          -6.4240   -1.4350    0.2960 C.3     1  UNL1       -0.0500
     20 C          -6.1890   -1.3190    1.8160 C.3     1  UNL1       -0.0500
     21 F           6.7860   -0.1490   -0.4210 F       1  UNL1       -0.2055
     22 C          -5.1680   -0.1920    2.0410 C.3     1  UNL1       -0.0211
     23 H           0.5640    3.6650    0.0290 H       1  UNL1        0.0887
     24 H          -2.3960    3.9350    0.2050 H       1  UNL1        0.1862
     25 H          -3.2990   -1.6500    0.5690 H       1  UNL1        0.2448
     26 H           5.7530   -2.3470    0.5360 H       1  UNL1        0.0647
     27 H          -4.3340    1.2170    0.5550 H       1  UNL1        0.0669
     28 H           4.9600    1.5750   -1.1440 H       1  UNL1        0.0647
     29 H           1.1370   -2.1430    0.1130 H       1  UNL1        0.1572
     30 H           2.5170    1.1760   -0.9540 H       1  UNL1        0.0637
     31 H           3.3130   -2.7490    0.7440 H       1  UNL1        0.0637
     32 H          -5.0480   -0.7740   -1.2900 H       1  UNL1        0.0297
     33 H          -6.1570    0.4750   -0.7380 H       1  UNL1        0.0297
     34 H          -6.1690   -2.4470   -0.0610 H       1  UNL1        0.0266
     35 H          -7.4880   -1.2820    0.0470 H       1  UNL1        0.0266
     36 H          -5.8160   -2.2730    2.2260 H       1  UNL1        0.0266
     37 H          -7.1320   -1.1070    2.3480 H       1  UNL1        0.0266
     38 H          -4.4140   -0.4660    2.7980 H       1  UNL1        0.0297
     39 H          -5.6660    0.7150    2.4310 H       1  UNL1        0.0297
@<TRIPOS>BOND
     1     1     7    2
     2     1     2    2
     3     2     4    1
     4     3    24    1
     5     4     5    2
     6     5     9    1
     7     6     5    1
     8     7     6    1
     9     8     7    1
    10     8    29    1
    11     9    25    1
    12     9    13    1
    13    10    16   ar
    14    11    17   ar
    15    12    31    1
    16    13    22    1
    17    14     3    2
    18    14     2    1
    19    15    11   ar
    20    15    10   ar
    21    16    12   ar
    22    16    26    1
    23    17     8    1
    24    17    12   ar
    25    18    19    1
    26    18    13    1
    27    19    20    1
    28    20    22    1
    29    20    36    1
    30    20    37    1
    31    21    10    1
    32    22    39    1
    33    22    38    1
    34    23    14    1
    35    27    13    1
    36    28    15    1
    37    30    11    1
    38    32    18    1
    39    33    18    1
    40    34    19    1
    41    35    19    1
