@<TRIPOS>MOLECULE
mol11.pdb
 39 41 0 0 0
SMALL
GASTEIGER

@<TRIPOS>ATOM
      1 N           0.4760    1.1100    0.1160 N.2     1  UNL1       -0.3209
      2 C          -0.6710    1.8530    0.1630 C.2     1  UNL1        0.3026
      3 N          -1.4220    4.2300    0.1330 N.2     1  UNL1       -0.3011
      4 N          -1.9320    1.3560    0.2570 N.2     1  UNL1       -0.0388
      5 C          -2.0320   -0.0400    0.3090 C.cat   1  UNL1        0.4154
      6 N          -0.9290   -0.8860    0.2680 N.pl3   1  UNL1        0.0075
      7 C           0.3050   -0.2650    0.1710 C.cat   1  UNL1        0.3446
      8 N           1.3790   -1.1490    0.1330 N.pl3   1  UNL1       -0.2611
      9 N          -3.2590   -0.6370    0.4040 N.pl3   1  UNL1       -0.2325
     10 C           5.3530    2.1700   -0.2210 C.3     1  UNL1        0.0298
     11 C           5.5610   -0.5120   -0.1460 C.ar    1  UNL1       -0.0578
     12 C           3.3050    0.4400   -0.0370 C.ar    1  UNL1       -0.0366
     13 C           3.6340   -1.9820    0.0210 C.ar    1  UNL1       -0.0404
     14 C          -4.5480    0.1090    0.4600 C.3     1  UNL1        0.0692
     15 C          -0.4940    3.3530    0.1040 C.2     1  UNL1        0.0927
     16 C           4.6900    0.5770   -0.1280 C.ar    1  UNL1       -0.0367
     17 C           5.0120   -1.7970   -0.0700 C.ar    1  UNL1       -0.0597
     18 C           2.7740   -0.8570    0.0380 C.ar    1  UNL1        0.0359
     19 C          -5.4600   -0.3430   -0.7040 C.3     1  UNL1       -0.0211
     20 C          -6.3950   -1.4280   -0.1460 C.3     1  UNL1       -0.0500
     21 C          -6.2980   -1.3770    1.3920 C.3     1  UNL1       -0.0500
     22 C          -5.3060   -0.2610    1.7560 C.3     1  UNL1       -0.0211
     23 H           0.5650    3.6650    0.0290 H       1  UNL1        0.0887
     24 H          -2.3960    3.9350    0.2030 H       1  UNL1        0.1862
     25 H          -3.3050   -1.6570    0.4400 H       1  UNL1        0.2448
     26 H           5.6730   -2.6660   -0.0830 H       1  UNL1        0.0618
     27 H          -4.3440    1.2080    0.4100 H       1  UNL1        0.0669
     28 H           1.1230   -2.1470    0.1820 H       1  UNL1        0.1572
     29 H           6.6370   -0.3670   -0.2170 H       1  UNL1        0.0620
     30 H           2.6620    1.3290   -0.0270 H       1  UNL1        0.0639
     31 H           3.2310   -2.9910    0.0790 H       1  UNL1        0.0636
     32 H          -4.8820   -0.7040   -1.5720 H       1  UNL1        0.0297
     33 H          -6.0410    0.5230   -1.0720 H       1  UNL1        0.0297
     34 H          -6.1060   -2.4250   -0.5210 H       1  UNL1        0.0266
     35 H          -7.4320   -1.2640   -0.4840 H       1  UNL1        0.0266
     36 H          -5.9610   -2.3480    1.7930 H       1  UNL1        0.0266
     37 H          -7.2860   -1.1870    1.8450 H       1  UNL1        0.0266
     38 H          -4.6230   -0.5660    2.5670 H       1  UNL1        0.0297
     39 H          -5.8400    0.6300    2.1350 H       1  UNL1        0.0297
@<TRIPOS>BOND
     1     1     2    2
     2     1     7    2
     3     2     4    1
     4     3    24    1
     5     4     5    2
     6     5     9    1
     7     6     5    1
     8     7     6    1
     9     8     7    1
    10     8    28    1
    11     9    25    1
    12     9    14    1
    13    10    16    1
    14    11    16   ar
    15    11    17   ar
    16    12    30    1
    17    12    18   ar
    18    13    18   ar
    19    13    31    1
    20    14    22    1
    21    15     3    2
    22    15     2    1
    23    16    12   ar
    24    17    13   ar
    25    18     8    1
    26    19    20    1
    27    19    14    1
    28    20    21    1
    29    21    22    1
    30    21    36    1
    31    21    37    1
    32    22    39    1
    33    22    38    1
    34    23    15    1
    35    26    17    1
    36    27    14    1
    37    29    11    1
    38    32    19    1
    39    33    19    1
    40    34    20    1
    41    35    20    1
