@<TRIPOS>MOLECULE
mol17.pdb
 39 41 0 0 0
SMALL
GASTEIGER

@<TRIPOS>ATOM
      1 N           0.4780    1.1090    0.1170 N.2     1  UNL1       -0.3209
      2 C          -0.6710    1.8530    0.1630 C.2     1  UNL1        0.3026
      3 N          -1.4220    4.2300    0.1330 N.2     1  UNL1       -0.3011
      4 N          -1.9300    1.3540    0.2570 N.2     1  UNL1       -0.0388
      5 C          -2.0310   -0.0420    0.3080 C.cat   1  UNL1        0.4154
      6 N          -0.9250   -0.8870    0.2680 N.pl3   1  UNL1        0.0075
      7 C           0.3060   -0.2640    0.1720 C.cat   1  UNL1        0.3446
      8 N           1.3840   -1.1510    0.1350 N.pl3   1  UNL1       -0.2609
      9 F           5.8010   -2.8390   -0.0820 F       1  UNL1       -0.2053
     10 N          -3.2550   -0.6410    0.4020 N.pl3   1  UNL1       -0.2325
     11 C           5.5850   -0.5090   -0.1450 C.ar    1  UNL1        0.0089
     12 C           3.3080    0.4340   -0.0360 C.ar    1  UNL1       -0.0050
     13 C           3.6270   -1.9930    0.0240 C.ar    1  UNL1       -0.0050
     14 C          -4.5460    0.1030    0.4580 C.3     1  UNL1        0.0692
     15 C          -0.4950    3.3530    0.1040 C.2     1  UNL1        0.0927
     16 C           4.6950    0.5680   -0.1250 C.ar    1  UNL1        0.1279
     17 C           5.0000   -1.7760   -0.0680 C.ar    1  UNL1        0.1279
     18 C           2.7730   -0.8620    0.0400 C.ar    1  UNL1        0.0410
     19 C          -5.4560   -0.3510   -0.7070 C.3     1  UNL1       -0.0211
     20 C          -6.3860   -1.4410   -0.1500 C.3     1  UNL1       -0.0500
     21 C          -6.2910   -1.3900    1.3880 C.3     1  UNL1       -0.0500
     22 F           5.2000    1.7970   -0.1970 F       1  UNL1       -0.2053
     23 C          -5.3040   -0.2700    1.7530 C.3     1  UNL1       -0.0211
     24 H           0.5650    3.6650    0.0280 H       1  UNL1        0.0887
     25 H          -2.3960    3.9360    0.2030 H       1  UNL1        0.1862
     26 H          -3.3000   -1.6610    0.4380 H       1  UNL1        0.2448
     27 H          -4.3450    1.2030    0.4100 H       1  UNL1        0.0669
     28 H           6.6620   -0.3710   -0.2160 H       1  UNL1        0.0675
     29 H           1.1230   -2.1500    0.1830 H       1  UNL1        0.1572
     30 H           2.6630    1.3220   -0.0250 H       1  UNL1        0.0665
     31 H           3.2310   -3.0040    0.0820 H       1  UNL1        0.0665
     32 H          -4.8770   -0.7080   -1.5750 H       1  UNL1        0.0297
     33 H          -6.0400    0.5130   -1.0740 H       1  UNL1        0.0297
     34 H          -6.0930   -2.4360   -0.5260 H       1  UNL1        0.0266
     35 H          -7.4240   -1.2810   -0.4890 H       1  UNL1        0.0266
     36 H          -5.9510   -2.3600    1.7890 H       1  UNL1        0.0266
     37 H          -7.2810   -1.2040    1.8400 H       1  UNL1        0.0266
     38 H          -4.6210   -0.5720    2.5650 H       1  UNL1        0.0297
     39 H          -5.8420    0.6180    2.1320 H       1  UNL1        0.0297
@<TRIPOS>BOND
     1     1     2    2
     2     1     7    2
     3     2     4    1
     4     3    25    1
     5     4     5    2
     6     5    10    1
     7     6     5    1
     8     7     6    1
     9     8     7    1
    10     8    29    1
    11     9    17    1
    12    10    26    1
    13    10    14    1
    14    11    16   ar
    15    11    17   ar
    16    12    30    1
    17    12    18   ar
    18    13    18   ar
    19    13    31    1
    20    14    23    1
    21    15     3    2
    22    15     2    1
    23    16    12   ar
    24    17    13   ar
    25    18     8    1
    26    19    20    1
    27    19    14    1
    28    20    21    1
    29    21    23    1
    30    21    36    1
    31    21    37    1
    32    22    16    1
    33    23    39    1
    34    23    38    1
    35    24    15    1
    36    27    14    1
    37    28    11    1
    38    32    19    1
    39    33    19    1
    40    34    20    1
    41    35    20    1
