@<TRIPOS>MOLECULE
mol15.pdb
 39 41 0 0 0
SMALL
GASTEIGER

@<TRIPOS>ATOM
      1 N           0.4770    1.1100    0.1190 N.2     1  UNL1        0.0000
      2 C          -0.6700    1.8530    0.1630 C.2     1  UNL1        0.0000
      3 N          -1.4220    4.2310    0.1330 N.2     1  UNL1        0.0000
      4 N          -1.9320    1.3570    0.2550 N.2     1  UNL1        0.3300
      5 C          -2.0320   -0.0400    0.3060 C.cat   1  UNL1        0.0000
      6 N          -0.9300   -0.8860    0.2660 N.pl3   1  UNL1        0.3300
      7 C           0.3050   -0.2660    0.1730 C.cat   1  UNL1        0.0000
      8 N           1.3650   -1.1360   -0.0570 N.pl3   1  UNL1        0.0000
      9 N          -3.2590   -0.6360    0.4040 N.pl3   1  UNL1        0.3300
     10 B           7.3120   -0.1780   -1.1280 B       1  UNL1        0.0000
     11 C           5.4520   -0.4440   -0.7920 C.ar    1  UNL1        0.0000
     12 C           3.2650    0.4740   -0.3330 C.ar    1  UNL1        0.0000
     13 C           3.5840   -1.9420   -0.5170 C.ar    1  UNL1        0.0000
     14 C          -4.5490    0.1100    0.4490 C.3     1  UNL1        0.0000
     15 C          -0.4950    3.3530    0.1040 C.2     1  UNL1        0.0000
     16 C           4.6270    0.6610   -0.5810 C.ar    1  UNL1        0.0000
     17 C           4.9420   -1.7450   -0.7610 C.ar    1  UNL1        0.0000
     18 C           2.7380   -0.8290   -0.3010 C.ar    1  UNL1        0.0000
     19 C          -5.4380   -0.3140   -0.7430 C.3     1  UNL1        0.0000
     20 C          -6.3830   -1.4120   -0.2290 C.3     1  UNL1        0.0000
     21 C          -6.3180   -1.3950    1.3110 C.3     1  UNL1        0.0000
     22 C          -5.3320   -0.2890    1.7200 C.3     1  UNL1        0.0000
     23 H           0.5640    3.6650    0.0290 H       1  UNL1        0.0000
     24 H          -2.3960    3.9350    0.2030 H       1  UNL1        0.0000
     25 H          -3.3060   -1.6570    0.4340 H       1  UNL1        0.0000
     26 H           5.5940   -2.6050   -0.9280 H       1  UNL1        0.0000
     27 H          -4.3430    1.2100    0.4290 H       1  UNL1        0.0000
     28 H           1.1140   -2.1370   -0.0510 H       1  UNL1        0.0000
     29 H           5.0330    1.6750   -0.6050 H       1  UNL1        0.0000
     30 H           2.6260    1.3480   -0.1690 H       1  UNL1        0.0000
     31 H           3.1880   -2.9560   -0.4950 H       1  UNL1        0.0000
     32 H          -4.8430   -0.6550   -1.6070 H       1  UNL1        0.0000
     33 H          -6.0110    0.5600   -1.1030 H       1  UNL1        0.0000
     34 H          -6.0870   -2.4000   -0.6210 H       1  UNL1        0.0000
     35 H          -7.4140   -1.2400   -0.5840 H       1  UNL1        0.0000
     36 H          -5.9910   -2.3750    1.6980 H       1  UNL1        0.0000
     37 H          -7.3150   -1.2130    1.7480 H       1  UNL1        0.0000
     38 H          -4.6660   -0.6130    2.5380 H       1  UNL1        0.0000
     39 H          -5.8730    0.5930    2.1100 H       1  UNL1        0.0000
@<TRIPOS>BOND
     1     1     2    2
     2     1     7    2
     3     2     4    1
     4     3    24    1
     5     4     5    2
     6     5     9    1
     7     6     5    1
     8     7     6    1
     9     8    28    1
    10     8     7    1
    11     9    25    1
    12     9    14    1
    13    10    11    1
    14    11    17   ar
    15    11    16   ar
    16    12    18   ar
    17    12    30    1
    18    13    31    1
    19    13    18   ar
    20    14    22    1
    21    15     3    2
    22    15     2    1
    23    16    12   ar
    24    17    13   ar
    25    18     8    1
    26    19    20    1
    27    19    14    1
    28    20    21    1
    29    21    36    1
    30    21    22    1
    31    21    37    1
    32    22    39    1
    33    22    38    1
    34    23    15    1
    35    26    17    1
    36    27    14    1
    37    29    16    1
    38    32    19    1
    39    33    19    1
    40    34    20    1
    41    35    20    1
