@<TRIPOS>MOLECULE
mol10.pdb
 41 43 0 0 0
SMALL
GASTEIGER

@<TRIPOS>ATOM
      1 N           0.4760    1.1070    0.1160 N.2     1  UNL1       -0.3209
      2 C          -0.6710    1.8530    0.1630 C.2     1  UNL1        0.3026
      3 N          -1.4230    4.2300    0.1330 N.2     1  UNL1       -0.3011
      4 N          -1.9310    1.3540    0.2580 N.2     1  UNL1       -0.0388
      5 C          -2.0320   -0.0420    0.3090 C.cat   1  UNL1        0.4154
      6 N          -0.9290   -0.8900    0.2680 N.pl3   1  UNL1        0.0075
      7 C           0.3020   -0.2660    0.1710 C.cat   1  UNL1        0.3446
      8 N           1.3830   -1.1460    0.1330 N.pl3   1  UNL1       -0.2610
      9 N          -3.2580   -0.6390    0.4050 N.pl3   1  UNL1       -0.2325
     10 N           5.2230    2.0170   -0.2070 N.pl3   1  UNL1        0.0565
     11 O           6.4360    2.1300   -0.2860 O.2     1  UNL1       -0.1261
     12 C           5.5560   -0.4470   -0.1490 C.ar    1  UNL1       -0.0314
     13 C           3.2850    0.4700   -0.0370 C.ar    1  UNL1       -0.0102
     14 C           3.6540   -1.9420    0.0170 C.ar    1  UNL1       -0.0403
     15 C          -4.5480    0.1080    0.4600 C.3     1  UNL1        0.0692
     16 C          -0.4940    3.3540    0.1040 C.2     1  UNL1        0.0927
     17 C           4.6710    0.6370   -0.1280 C.ar    1  UNL1        0.1279
     18 C           5.0290   -1.7400   -0.0750 C.ar    1  UNL1       -0.0579
     19 C           2.7710   -0.8350    0.0360 C.ar    1  UNL1        0.0377
     20 O           4.4370    2.9470   -0.1880 O.2     1  UNL1       -0.1261
     21 C          -5.4580   -0.3420   -0.7050 C.3     1  UNL1       -0.0211
     22 C          -6.3920   -1.4300   -0.1490 C.3     1  UNL1       -0.0500
     23 C          -6.2970   -1.3810    1.3890 C.3     1  UNL1       -0.0500
     24 C          -5.3060   -0.2640    1.7550 C.3     1  UNL1       -0.0211
     25 H           0.5670    3.6660    0.0280 H       1  UNL1        0.0887
     26 H          -2.3960    3.9350    0.2030 H       1  UNL1        0.1862
     27 H          -3.3050   -1.6590    0.4400 H       1  UNL1        0.2448
     28 H           5.7030   -2.5990   -0.0890 H       1  UNL1        0.0619
     29 H          -4.3440    1.2080    0.4130 H       1  UNL1        0.0669
     30 H           1.1360   -2.1450    0.1800 H       1  UNL1        0.1572
     31 H           6.6350   -0.2770   -0.2210 H       1  UNL1        0.0640
     32 H           2.6310    1.3600   -0.0250 H       1  UNL1        0.0659
     33 H           3.2660   -2.9600    0.0740 H       1  UNL1        0.0636
     34 H          -4.8800   -0.7010   -1.5730 H       1  UNL1        0.0297
     35 H          -6.0400    0.5230   -1.0710 H       1  UNL1        0.0297
     36 H          -6.1030   -2.4260   -0.5250 H       1  UNL1        0.0266
     37 H          -7.4300   -1.2660   -0.4870 H       1  UNL1        0.0266
     38 H          -5.9590   -2.3520    1.7900 H       1  UNL1        0.0266
     39 H          -7.2860   -1.1920    1.8420 H       1  UNL1        0.0266
     40 H          -4.6240   -0.5690    2.5670 H       1  UNL1        0.0297
     41 H          -5.8420    0.6260    2.1350 H       1  UNL1        0.0297
@<TRIPOS>BOND
     1     1     2    2
     2     1     7    2
     3     2     4    1
     4     3    26    1
     5     4     5    2
     6     5     9    1
     7     6     5    1
     8     7     6    1
     9     8     7    1
    10     8    30    1
    11     9    27    1
    12     9    15    1
    13    10    20    2
    14    10    17    1
    15    11    10    2
    16    12    17   ar
    17    12    18   ar
    18    13    32    1
    19    13    19   ar
    20    14    19   ar
    21    14    33    1
    22    15    24    1
    23    16     3    2
    24    16     2    1
    25    17    13   ar
    26    18    14   ar
    27    19     8    1
    28    21    22    1
    29    21    15    1
    30    22    23    1
    31    23    24    1
    32    23    38    1
    33    23    39    1
    34    24    41    1
    35    24    40    1
    36    25    16    1
    37    28    18    1
    38    29    15    1
    39    31    12    1
    40    34    21    1
    41    35    21    1
    42    36    22    1
    43    37    22    1
