@<TRIPOS>MOLECULE
mol12.pdb
 39 41 0 0 0
SMALL
GASTEIGER

@<TRIPOS>ATOM
      1 N           0.4770    1.1100    0.1170 N.2     1  UNL1        0.0000
      2 C          -0.6710    1.8530    0.1630 C.2     1  UNL1        0.0000
      3 N          -1.4220    4.2300    0.1330 N.2     1  UNL1        0.0000
      4 N          -1.9320    1.3560    0.2570 N.2     1  UNL1        0.3300
      5 C          -2.0310   -0.0410    0.3090 C.cat   1  UNL1        0.0000
      6 N          -0.9290   -0.8870    0.2680 N.pl3   1  UNL1        0.3300
      7 C           0.3060   -0.2650    0.1720 C.cat   1  UNL1        0.0000
      8 N           1.3800   -1.1480    0.1340 N.pl3   1  UNL1        0.0000
      9 N          -3.2580   -0.6380    0.4040 N.pl3   1  UNL1        0.3300
     10 B           5.4230    2.3560   -0.2330 B       1  UNL1        0.0000
     11 C           5.5580   -0.5020   -0.1450 C.ar    1  UNL1        0.0000
     12 C           3.3060    0.4440   -0.0380 C.ar    1  UNL1        0.0000
     13 C           3.6360   -1.9780    0.0230 C.ar    1  UNL1        0.0000
     14 C          -4.5470    0.1070    0.4590 C.3     1  UNL1        0.0000
     15 C          -0.4940    3.3530    0.1040 C.2     1  UNL1        0.0000
     16 C           4.6900    0.5890   -0.1280 C.ar    1  UNL1        0.0000
     17 C           5.0140   -1.7890   -0.0690 C.ar    1  UNL1        0.0000
     18 C           2.7750   -0.8540    0.0380 C.ar    1  UNL1        0.0000
     19 C          -5.4580   -0.3430   -0.7060 C.3     1  UNL1        0.0000
     20 C          -6.3930   -1.4290   -0.1490 C.3     1  UNL1        0.0000
     21 C          -6.2980   -1.3790    1.3890 C.3     1  UNL1        0.0000
     22 C          -5.3060   -0.2630    1.7550 C.3     1  UNL1        0.0000
     23 H           0.5650    3.6650    0.0290 H       1  UNL1        0.0000
     24 H          -2.3960    3.9350    0.2030 H       1  UNL1        0.0000
     25 H          -3.3040   -1.6580    0.4400 H       1  UNL1        0.0000
     26 H           5.6770   -2.6550   -0.0810 H       1  UNL1        0.0000
     27 H          -4.3440    1.2070    0.4110 H       1  UNL1        0.0000
     28 H           1.1250   -2.1460    0.1820 H       1  UNL1        0.0000
     29 H           6.6370   -0.3640   -0.2160 H       1  UNL1        0.0000
     30 H           2.6530    1.3270   -0.0270 H       1  UNL1        0.0000
     31 H           3.2350   -2.9880    0.0810 H       1  UNL1        0.0000
     32 H          -4.8800   -0.7040   -1.5730 H       1  UNL1        0.0000
     33 H          -6.0390    0.5220   -1.0740 H       1  UNL1        0.0000
     34 H          -6.1050   -2.4260   -0.5250 H       1  UNL1        0.0000
     35 H          -7.4310   -1.2650   -0.4870 H       1  UNL1        0.0000
     36 H          -5.9600   -2.3510    1.7900 H       1  UNL1        0.0000
     37 H          -7.2860   -1.1900    1.8420 H       1  UNL1        0.0000
     38 H          -4.6230   -0.5690    2.5660 H       1  UNL1        0.0000
     39 H          -5.8400    0.6270    2.1340 H       1  UNL1        0.0000
@<TRIPOS>BOND
     1     1     2    2
     2     1     7    2
     3     2     4    1
     4     3    24    1
     5     4     5    2
     6     5     9    1
     7     6     5    1
     8     7     6    1
     9     8     7    1
    10     8    28    1
    11     9    25    1
    12     9    14    1
    13    10    16    1
    14    11    16   ar
    15    11    17   ar
    16    12    30    1
    17    12    18   ar
    18    13    18   ar
    19    13    31    1
    20    14    22    1
    21    15     3    2
    22    15     2    1
    23    16    12   ar
    24    17    13   ar
    25    18     8    1
    26    19    20    1
    27    19    14    1
    28    20    21    1
    29    21    22    1
    30    21    36    1
    31    21    37    1
    32    22    39    1
    33    22    38    1
    34    23    15    1
    35    26    17    1
    36    27    14    1
    37    29    11    1
    38    32    19    1
    39    33    19    1
    40    34    20    1
    41    35    20    1
