@<TRIPOS>MOLECULE
mol18.pdb
 32 33 0 0 0
SMALL
GASTEIGER

@<TRIPOS>ATOM
      1 N           0.4770    1.1090    0.1790 N.2     1  UNL1       -0.3209
      2 C          -0.6700    1.8530    0.1630 C.2     1  UNL1        0.3026
      3 N          -1.4220    4.2310    0.1330 N.2     1  UNL1       -0.3011
      4 N          -1.9350    1.3480    0.1920 N.2     1  UNL1       -0.0388
      5 C          -2.0270   -0.0440    0.2570 C.cat   1  UNL1        0.4153
      6 N          -0.9290   -0.8900    0.2590 N.pl3   1  UNL1        0.0075
      7 C           0.3090   -0.2650    0.2250 C.cat   1  UNL1        0.3446
      8 N           1.3850   -1.1490    0.2360 N.pl3   1  UNL1       -0.2609
      9 N          -3.2640   -0.6400    0.3520 N.pl3   1  UNL1       -0.2297
     10 C          -5.0630    0.4060    1.7130 C.3     1  UNL1        0.2673
     11 F           5.2090    1.8070    0.1080 F       1  UNL1       -0.2053
     12 F           5.8110   -2.8310    0.2020 F       1  UNL1       -0.2053
     13 C           5.5940   -0.4990    0.1530 C.ar    1  UNL1        0.0089
     14 C           3.3140    0.4400    0.1690 C.ar    1  UNL1       -0.0050
     15 C           3.6330   -1.9860    0.2180 C.ar    1  UNL1       -0.0050
     16 C          -4.5110    0.1410    0.2960 C.3     1  UNL1        0.1183
     17 C          -0.4950    3.3530    0.1040 C.2     1  UNL1        0.0927
     18 C           4.7040    0.5770    0.1430 C.ar    1  UNL1        0.1279
     19 C           5.0090   -1.7680    0.1910 C.ar    1  UNL1        0.1279
     20 C           2.7790   -0.8560    0.2060 C.ar    1  UNL1        0.0410
     21 F          -6.2480    1.0610    1.6240 F       1  UNL1       -0.2060
     22 F          -4.2940    1.3170    2.3650 F       1  UNL1       -0.2060
     23 H          -3.3290   -1.6570    0.2890 H       1  UNL1        0.2447
     24 H           0.5650    3.6640    0.0310 H       1  UNL1        0.0887
     25 H          -2.3970    3.9420    0.2010 H       1  UNL1        0.1862
     26 H           1.1260   -2.1490    0.2700 H       1  UNL1        0.1572
     27 H          -5.1840   -0.5010    2.3490 H       1  UNL1        0.1049
     28 H           6.6740   -0.3600    0.1320 H       1  UNL1        0.0675
     29 H           2.6700    1.3280    0.1590 H       1  UNL1        0.0665
     30 H           3.2360   -2.9990    0.2470 H       1  UNL1        0.0665
     31 H          -5.2860   -0.4090   -0.3010 H       1  UNL1        0.0689
     32 H          -4.3100    1.0920   -0.2550 H       1  UNL1        0.0689
@<TRIPOS>BOND
     1     1     7    2
     2     2     1    2
     3     2     4    1
     4     3    25    1
     5     4     5    2
     6     5     6    1
     7     5     9    1
     8     7     8    1
     9     7     6    1
    10     8    26    1
    11    10    27    1
    12    10    22    1
    13    11    18    1
    14    13    19   ar
    15    14    20   ar
    16    15    30    1
    17    16     9    1
    18    16    10    1
    19    17     3    2
    20    17     2    1
    21    18    13   ar
    22    18    14   ar
    23    19    12    1
    24    19    15   ar
    25    20    15   ar
    26    20     8    1
    27    21    10    1
    28    23     9    1
    29    24    17    1
    30    28    13    1
    31    29    14    1
    32    31    16    1
    33    32    16    1
