@<TRIPOS>MOLECULE
mol27.pdb
 36 38 0 0 0
SMALL
GASTEIGER

@<TRIPOS>ATOM
      1 N           0.4610    1.1050    0.0120 N.2     1  UNL1       -0.3209
      2 C          -0.6710    1.8530    0.1630 C.2     1  UNL1        0.3026
      3 N          -1.4230    4.2300    0.1330 N.2     1  UNL1       -0.3011
      4 N          -1.9260    1.3660    0.3610 N.2     1  UNL1       -0.0388
      5 C          -2.0300   -0.0270    0.4050 C.cat   1  UNL1        0.4156
      6 N          -0.9460   -0.8820    0.2690 N.pl3   1  UNL1        0.0075
      7 C           0.2860   -0.2720    0.0730 C.cat   1  UNL1        0.3446
      8 N           1.3420   -1.1610   -0.0570 N.pl3   1  UNL1       -0.2611
      9 N          -3.2540   -0.6230    0.5910 N.pl3   1  UNL1       -0.2301
     10 C          -5.0840    0.8360   -0.4580 C.3     1  UNL1       -0.0153
     11 C           5.4870   -0.5280   -0.6150 C.ar    1  UNL1       -0.0616
     12 C           3.2380    0.3940   -0.5750 C.ar    1  UNL1       -0.0404
     13 C           3.6090   -1.9740   -0.1010 C.ar    1  UNL1       -0.0404
     14 C          -4.5040    0.1310    0.7640 C.3     1  UNL1        0.0775
     15 C          -0.4940    3.3530    0.1040 C.2     1  UNL1        0.0927
     16 C           4.6140    0.5540   -0.7560 C.ar    1  UNL1       -0.0600
     17 C           4.9780   -1.7900   -0.2880 C.ar    1  UNL1       -0.0600
     18 C           2.7340   -0.8730   -0.2450 C.ar    1  UNL1        0.0356
     19 C          -4.6300    0.7430    2.1340 C.3     1  UNL1       -0.0302
     20 C          -5.7200   -0.4470    0.0420 C.3     1  UNL1       -0.0153
     21 H           0.5650    3.6650    0.0270 H       1  UNL1        0.0887
     22 H          -2.3960    3.9320    0.2050 H       1  UNL1        0.1862
     23 H          -3.2980   -1.6430    0.6290 H       1  UNL1        0.2450
     24 H           5.0060    1.5390   -1.0110 H       1  UNL1        0.0618
     25 H           5.6550   -2.6370   -0.1770 H       1  UNL1        0.0618
     26 H          -4.5290    0.8330   -1.3950 H       1  UNL1        0.0301
     27 H           1.0900   -2.1560    0.0290 H       1  UNL1        0.1572
     28 H          -5.5960    1.7870   -0.3300 H       1  UNL1        0.0301
     29 H          -3.8510    1.5080    2.2890 H       1  UNL1        0.0264
     30 H          -4.5210   -0.0050    2.9300 H       1  UNL1        0.0264
     31 H           6.5560   -0.3910   -0.7580 H       1  UNL1        0.0618
     32 H           2.5750    1.2550   -0.6910 H       1  UNL1        0.0636
     33 H           3.2280   -2.9600    0.1570 H       1  UNL1        0.0636
     34 H          -5.5990    1.2370    2.2750 H       1  UNL1        0.0264
     35 H          -6.6910   -0.4160    0.5310 H       1  UNL1        0.0301
     36 H          -5.6320   -1.3530   -0.5540 H       1  UNL1        0.0301
@<TRIPOS>BOND
     1     1     7    2
     2     1     2    2
     3     2     4    1
     4     3    22    1
     5     4     5    2
     6     5     9    1
     7     6     5    1
     8     7     6    1
     9     8    27    1
    10     8     7    1
    11     9    23    1
    12     9    14    1
    13    10    28    1
    14    10    20    1
    15    10    14    1
    16    11    17   ar
    17    12    18   ar
    18    13    33    1
    19    14    19    1
    20    15     3    2
    21    15     2    1
    22    16    11   ar
    23    16    12   ar
    24    17    25    1
    25    17    13   ar
    26    18    13   ar
    27    18     8    1
    28    19    34    1
    29    19    29    1
    30    19    30    1
    31    20    35    1
    32    20    14    1
    33    21    15    1
    34    24    16    1
    35    26    10    1
    36    31    11    1
    37    32    12    1
    38    36    20    1
