@<TRIPOS>MOLECULE
mol26.pdb
 41 44 0 0 0
SMALL
GASTEIGER

@<TRIPOS>ATOM
      1 N          -1.9540    1.4170    0.3570 N.2     1  UNL1       -0.0412
      2 C          -0.6730    1.8550    0.1630 C.2     1  UNL1        0.3733
      3 N          -1.4240    4.2280    0.1330 N.2     1  UNL1       -0.2995
      4 N           0.4500    1.0920    0.0160 N.pl3   1  UNL1        0.0152
      5 C           0.2080   -0.2550    0.0710 C.ar    1  UNL1        0.2719
      6 C          -1.0940   -0.8310    0.2660 C.ar    1  UNL1        0.1828
      7 C          -2.2080    0.0600    0.4120 C.3     1  UNL1        0.3191
      8 N          -3.4770   -0.4190    0.5890 N.3     1  UNL1       -0.2590
      9 N          -1.0140   -2.2350    0.2760 N.ar    1  UNL1       -0.2296
     10 C           0.2680   -2.5320    0.0950 C.ar    1  UNL1        0.1042
     11 N           1.0970   -1.3480   -0.0420 N.ar    1  UNL1       -0.2641
     12 C           2.5110   -1.3350   -0.2500 C.ar    1  UNL1        0.0567
     13 C          -4.6520    1.2230    2.1050 C.3     1  UNL1       -0.0374
     14 C          -5.2260    2.6090    1.7710 C.3     1  UNL1       -0.0516
     15 C          -4.9580    2.8200    0.2710 C.3     1  UNL1       -0.0516
     16 C          -4.9440    1.4190   -0.3630 C.3     1  UNL1       -0.0374
     17 C           3.1770   -2.5660   -0.4250 C.ar    1  UNL1       -0.0022
     18 C          -0.4910    3.3540    0.1040 C.2     1  UNL1        0.1132
     19 C           4.5590   -2.5410   -0.6210 C.ar    1  UNL1        0.1281
     20 C          -4.7010    0.4110    0.7870 C.3     1  UNL1        0.0122
     21 C           5.3180   -1.3680   -0.6540 C.ar    1  UNL1        0.0089
     22 C           4.6040   -0.1790   -0.4780 C.ar    1  UNL1        0.1281
     23 C           3.2230   -0.1250   -0.2760 C.ar    1  UNL1       -0.0022
     24 F           5.1870   -3.7020   -0.7850 F       1  UNL1       -0.2053
     25 F           5.2800    0.9660   -0.5020 F       1  UNL1       -0.2053
     26 H           0.5670    3.6680    0.0240 H       1  UNL1        0.0906
     27 H          -2.4020    3.9170    0.2070 H       1  UNL1        0.1863
     28 H          -5.5480   -0.3220    0.8260 H       1  UNL1        0.0462
     29 H          -3.6120    1.3240    2.4720 H       1  UNL1        0.0280
     30 H          -3.5920   -1.4350    0.6300 H       1  UNL1        0.1271
     31 H           0.7000   -3.5250    0.0500 H       1  UNL1        0.1033
     32 H           2.6430   -3.5150   -0.4140 H       1  UNL1        0.0667
     33 H           6.3960   -1.3790   -0.8090 H       1  UNL1        0.0675
     34 H           2.7170    0.8420   -0.1450 H       1  UNL1        0.0667
     35 H          -5.2160    0.7240    2.9070 H       1  UNL1        0.0280
     36 H          -4.7570    3.3980    2.3820 H       1  UNL1        0.0266
     37 H          -6.3080    2.6480    1.9850 H       1  UNL1        0.0266
     38 H          -3.9720    3.3110    0.1260 H       1  UNL1        0.0266
     39 H          -5.7100    3.4740   -0.1940 H       1  UNL1        0.0266
     40 H          -4.1680    1.3500   -1.1470 H       1  UNL1        0.0280
     41 H          -5.9030    1.2000   -0.8610 H       1  UNL1        0.0280
@<TRIPOS>BOND
     1     1     7    1
     2     2     1    2
     3     3    27    1
     4     4     5    1
     5     4     2    1
     6     5     6   ar
     7     6     9   ar
     8     6     7    1
     9     7     8    1
    10     8    30    1
    11     8    20    1
    12    10     9   ar
    13    11     5   ar
    14    11    10   ar
    15    12    11    1
    16    13    29    1
    17    13    35    1
    18    14    37    1
    19    14    13    1
    20    14    36    1
    21    15    14    1
    22    16    15    1
    23    16    20    1
    24    17    32    1
    25    17    12   ar
    26    18     3    2
    27    18     2    1
    28    19    17   ar
    29    20    28    1
    30    20    13    1
    31    21    19   ar
    32    21    22   ar
    33    22    23   ar
    34    23    12   ar
    35    23    34    1
    36    24    19    1
    37    25    22    1
    38    26    18    1
    39    31    10    1
    40    33    21    1
    41    38    15    1
    42    39    15    1
    43    40    16    1
    44    41    16    1
