@<TRIPOS>MOLECULE
mol21.pdb
 34 36 0 0 0
SMALL
GASTEIGER

@<TRIPOS>ATOM
      1 N           0.5070    1.1320    0.1020 N.2     1  UNL1       -0.0370
      2 C          -0.6700    1.8530    0.1630 C.2     1  UNL1        0.3736
      3 N          -1.4220    4.2320    0.1330 N.2     1  UNL1       -0.2995
      4 N          -1.9290    1.3610    0.2670 N.pl3   1  UNL1        0.0148
      5 C          -1.9810   -0.0130    0.3120 C.ar    1  UNL1        0.2678
      6 C          -0.8230   -0.8690    0.2580 C.ar    1  UNL1        0.1863
      7 C           0.4590   -0.2340    0.1490 C.3     1  UNL1        0.3354
      8 N           1.5930   -1.0320    0.0960 N.pl3   1  UNL1       -0.2898
      9 N          -1.2160   -2.2120    0.3310 N.ar    1  UNL1       -0.2296
     10 C          -2.5540   -2.1960    0.4250 C.ar    1  UNL1        0.0996
     11 N          -3.0790   -0.8660    0.4350 N.ar    1  UNL1       -0.2962
     12 C          -5.1390   -0.6220   -0.9200 C.3     1  UNL1       -0.0469
     13 C           6.1320   -2.3640   -0.1680 C.3     1  UNL1        0.0298
     14 C           5.7150   -0.0550   -0.2150 C.ar    1  UNL1       -0.0578
     15 C           3.4000    0.6940   -0.0820 C.ar    1  UNL1       -0.0407
     16 C           3.8960   -1.7010   -0.0380 C.ar    1  UNL1       -0.0369
     17 C          -4.5020   -0.4690    0.4560 C.3     1  UNL1        0.0250
     18 C          -0.4960    3.3520    0.1040 C.2     1  UNL1        0.1133
     19 C           4.7660    0.9700   -0.1830 C.ar    1  UNL1       -0.0597
     20 C           5.2440   -1.3690   -0.1400 C.ar    1  UNL1       -0.0368
     21 C           2.9620   -0.6390   -0.0090 C.ar    1  UNL1        0.0311
     22 H           0.5630    3.6670    0.0280 H       1  UNL1        0.0906
     23 H          -2.3960    3.9390    0.2030 H       1  UNL1        0.1863
     24 H           5.0960    2.0100   -0.2390 H       1  UNL1        0.0618
     25 H           1.4140   -2.0490    0.1410 H       1  UNL1        0.1510
     26 H          -3.1960   -3.0630    0.5000 H       1  UNL1        0.1030
     27 H          -6.1930   -0.3180   -0.8990 H       1  UNL1        0.0247
     28 H          -5.1010   -1.6550   -1.2870 H       1  UNL1        0.0247
     29 H          -4.6370    0.0060   -1.6710 H       1  UNL1        0.0247
     30 H           6.7770    0.1650   -0.2940 H       1  UNL1        0.0620
     31 H           2.6860    1.5230   -0.0600 H       1  UNL1        0.0636
     32 H           3.5810   -2.7410    0.0170 H       1  UNL1        0.0639
     33 H          -4.5660    0.5940    0.7990 H       1  UNL1        0.0490
     34 H          -5.0330   -1.0920    1.2130 H       1  UNL1        0.0490
@<TRIPOS>BOND
     1     1     7    1
     2     1     2    2
     3     2     4    1
     4     3    23    1
     5     4     5    1
     6     5    11   ar
     7     6     5   ar
     8     6     9   ar
     9     7     8    1
    10     7     6    1
    11     8    25    1
    12     9    10   ar
    13    10    11   ar
    14    10    26    1
    15    11    17    1
    16    12    27    1
    17    12    17    1
    18    13    20    1
    19    14    19   ar
    20    14    20   ar
    21    15    31    1
    22    15    21   ar
    23    16    21   ar
    24    16    32    1
    25    17    33    1
    26    17    34    1
    27    18     3    2
    28    18     2    1
    29    19    15   ar
    30    20    16   ar
    31    21     8    1
    32    22    18    1
    33    24    19    1
    34    28    12    1
    35    29    12    1
    36    30    14    1
