@<TRIPOS>MOLECULE
mol23.pdb
 34 36 0 0 0
SMALL
GASTEIGER

@<TRIPOS>ATOM
      1 N          -1.9490    1.3740    0.2970 N.2     1  UNL1       -0.0412
      2 C          -0.6690    1.8520    0.1630 C.2     1  UNL1        0.3733
      3 N          -1.4220    4.2330    0.1330 N.2     1  UNL1       -0.2995
      4 N           0.4770    1.1190    0.0830 N.pl3   1  UNL1        0.0152
      5 C           0.2810   -0.2360    0.1400 C.ar    1  UNL1        0.2719
      6 C          -1.0110   -0.8530    0.2740 C.ar    1  UNL1        0.1828
      7 C          -2.1500    0.0090    0.3420 C.3     1  UNL1        0.3190
      8 N          -3.4220   -0.5000    0.4260 N.3     1  UNL1       -0.2564
      9 N          -0.8850   -2.2530    0.3100 N.ar    1  UNL1       -0.2296
     10 C           0.4140   -2.5070    0.1970 C.ar    1  UNL1        0.1042
     11 N           1.2070   -1.2980    0.0840 N.ar    1  UNL1       -0.2641
     12 C           2.6290   -1.2340   -0.0600 C.ar    1  UNL1        0.0567
     13 F          -5.2410   -0.1060    2.7750 F       1  UNL1       -0.2079
     14 F          -5.8390    1.7560    1.9970 F       1  UNL1       -0.2079
     15 C          -4.7990    0.8850    1.9600 C.3     1  UNL1        0.2517
     16 C           3.3230   -2.4090   -0.4170 C.ar    1  UNL1       -0.0022
     17 C          -0.4970    3.3520    0.1040 C.2     1  UNL1        0.1132
     18 C           4.7120   -2.3350   -0.5360 C.ar    1  UNL1        0.1281
     19 C          -4.6110    0.3640    0.5190 C.3     1  UNL1        0.0611
     20 C           5.4480   -1.1670   -0.3260 C.ar    1  UNL1        0.0089
     21 C           4.7070   -0.0330    0.0190 C.ar    1  UNL1        0.1281
     22 C           3.3170   -0.0300    0.1610 C.ar    1  UNL1       -0.0022
     23 F           5.3690   -3.4430   -0.8700 F       1  UNL1       -0.2053
     24 F           5.3610    1.1050    0.2270 F       1  UNL1       -0.2053
     25 H           0.5630    3.6650    0.0260 H       1  UNL1        0.0906
     26 H          -2.3970    3.9450    0.2040 H       1  UNL1        0.1863
     27 H          -3.8970    1.3620    2.4100 H       1  UNL1        0.1031
     28 H          -5.5010   -0.2100    0.1670 H       1  UNL1        0.0481
     29 H          -4.5070    1.2390   -0.1760 H       1  UNL1        0.0481
     30 H          -3.5470   -1.5050    0.5600 H       1  UNL1        0.1270
     31 H           0.8810   -3.4850    0.1960 H       1  UNL1        0.1033
     32 H           2.8040   -3.3460   -0.6120 H       1  UNL1        0.0667
     33 H           6.5340   -1.1400   -0.4270 H       1  UNL1        0.0675
     34 H           2.7850    0.8930    0.4260 H       1  UNL1        0.0667
@<TRIPOS>BOND
     1     1     7    1
     2     2     1    2
     3     3    26    1
     4     4     5    1
     5     4     2    1
     6     5     6   ar
     7     6     9   ar
     8     6     7    1
     9     7     8    1
    10     8    19    1
    11     8    30    1
    12    10     9   ar
    13    11     5   ar
    14    11    10   ar
    15    12    11    1
    16    12    22   ar
    17    15    14    1
    18    15    27    1
    19    15    13    1
    20    16    12   ar
    21    17     3    2
    22    17     2    1
    23    18    16   ar
    24    18    20   ar
    25    19    15    1
    26    20    21   ar
    27    21    22   ar
    28    21    24    1
    29    22    34    1
    30    23    18    1
    31    25    17    1
    32    28    19    1
    33    29    19    1
    34    31    10    1
    35    32    16    1
    36    33    20    1
