@<TRIPOS>MOLECULE
mol28.pdb
 42 44 0 0 0
SMALL
GASTEIGER

@<TRIPOS>ATOM
      1 N           0.4770    1.1120    0.1490 N.2     1  UNL1       -0.3209
      2 C          -0.6700    1.8530    0.1630 C.2     1  UNL1        0.3026
      3 N          -1.4220    4.2310    0.1330 N.2     1  UNL1       -0.3011
      4 N          -1.9360    1.3580    0.2230 N.2     1  UNL1       -0.0388
      5 C          -2.0360   -0.0370    0.2780 C.cat   1  UNL1        0.4154
      6 N          -0.9370   -0.8840    0.2560 N.pl3   1  UNL1        0.0075
      7 C           0.3050   -0.2660    0.1970 C.cat   1  UNL1        0.3446
      8 N           1.3740   -1.1490    0.1830 N.pl3   1  UNL1       -0.2611
      9 N          -3.2670   -0.6310    0.3780 N.pl3   1  UNL1       -0.2325
     10 C          -5.0730    0.1890   -1.1200 C.3     1  UNL1       -0.0211
     11 C          -6.6050    0.2930   -1.1730 C.3     1  UNL1       -0.0501
     12 C           5.5490   -0.5060   -0.0430 C.ar    1  UNL1       -0.0616
     13 C           3.3200    0.4300    0.2140 C.ar    1  UNL1       -0.0404
     14 C           3.6200   -1.9770   -0.0800 C.ar    1  UNL1       -0.0404
     15 C          -4.5520    0.1310    0.3330 C.3     1  UNL1        0.0692
     16 C          -0.4950    3.3520    0.1040 C.2     1  UNL1        0.0927
     17 C           4.7060    0.5930    0.1380 C.ar    1  UNL1       -0.0600
     18 C           4.9990   -1.7890   -0.1510 C.ar    1  UNL1       -0.0600
     19 C           2.7750   -0.8580    0.1030 C.ar    1  UNL1        0.0356
     20 C          -7.1740    1.0110    0.0560 C.3     1  UNL1       -0.0529
     21 C          -6.8560    0.2600    1.3590 C.3     1  UNL1       -0.0501
     22 C          -5.5560   -0.5560    1.2770 C.3     1  UNL1       -0.0211
     23 H           0.5640    3.6650    0.0280 H       1  UNL1        0.0887
     24 H          -2.3960    3.9330    0.2020 H       1  UNL1        0.1862
     25 H          -3.3110   -1.6510    0.3650 H       1  UNL1        0.2448
     26 H           5.1290    1.5950    0.2230 H       1  UNL1        0.0618
     27 H           5.6520   -2.6500   -0.2920 H       1  UNL1        0.0618
     28 H           1.1180   -2.1470    0.2040 H       1  UNL1        0.1572
     29 H          -4.7450   -0.6970   -1.6960 H       1  UNL1        0.0297
     30 H           6.6260   -0.3670   -0.1010 H       1  UNL1        0.0618
     31 H           2.6810    1.3060    0.3570 H       1  UNL1        0.0636
     32 H           3.2080   -2.9790   -0.1680 H       1  UNL1        0.0636
     33 H          -4.6110    1.0580   -1.6290 H       1  UNL1        0.0297
     34 H          -4.3600    1.1780    0.6990 H       1  UNL1        0.0669
     35 H          -7.0460   -0.7200   -1.2450 H       1  UNL1        0.0266
     36 H          -6.9090    0.8230   -2.0950 H       1  UNL1        0.0266
     37 H          -8.2680    1.1300   -0.0510 H       1  UNL1        0.0265
     38 H          -6.7630    2.0390    0.1050 H       1  UNL1        0.0265
     39 H          -7.6910   -0.4190    1.6160 H       1  UNL1        0.0266
     40 H          -6.7910    0.9870    2.1920 H       1  UNL1        0.0266
     41 H          -5.7810   -1.5800    0.9200 H       1  UNL1        0.0297
     42 H          -5.1200   -0.6720    2.2870 H       1  UNL1        0.0297
@<TRIPOS>BOND
     1     1     2    2
     2     1     7    2
     3     2     4    1
     4     3    24    1
     5     4     5    2
     6     5     9    1
     7     6     5    1
     8     7     6    1
     9     8     7    1
    10     8    28    1
    11    10    15    1
    12    11    10    1
    13    11    20    1
    14    12    17   ar
    15    13    31    1
    16    14    19   ar
    17    15     9    1
    18    15    34    1
    19    15    22    1
    20    16     3    2
    21    16     2    1
    22    17    13   ar
    23    17    26    1
    24    18    14   ar
    25    18    12   ar
    26    19     8    1
    27    19    13   ar
    28    20    38    1
    29    20    21    1
    30    21    39    1
    31    21    40    1
    32    22    21    1
    33    22    42    1
    34    23    16    1
    35    25     9    1
    36    27    18    1
    37    29    10    1
    38    30    12    1
    39    32    14    1
    40    33    10    1
    41    35    11    1
    42    36    11    1
    43    37    20    1
    44    41    22    1
