@<TRIPOS>MOLECULE
mol25.pdb
 34 36 0 0 0
SMALL
GASTEIGER

@<TRIPOS>ATOM
      1 N          -1.9540    1.3710    0.2190 N.2     1  UNL1       -0.0412
      2 C          -0.6690    1.8520    0.1630 C.2     1  UNL1        0.3733
      3 N          -1.4220    4.2330    0.1330 N.2     1  UNL1       -0.2995
      4 N           0.4820    1.1210    0.1490 N.pl3   1  UNL1        0.0152
      5 C           0.2850   -0.2340    0.2030 C.ar    1  UNL1        0.2719
      6 C          -1.0110   -0.8530    0.2690 C.ar    1  UNL1        0.1828
      7 C          -2.1530    0.0070    0.2860 C.3     1  UNL1        0.3190
      8 N          -3.4230   -0.5010    0.3930 N.3     1  UNL1       -0.2564
      9 N          -0.8850   -2.2530    0.3090 N.ar    1  UNL1       -0.2296
     10 C           0.4200   -2.5050    0.2770 C.ar    1  UNL1        0.1042
     11 N           1.2150   -1.2940    0.2140 N.ar    1  UNL1       -0.2643
     12 C           2.6440   -1.2270    0.1780 C.ar    1  UNL1        0.0515
     13 F          -6.4950    1.0140    1.6860 F       1  UNL1       -0.2079
     14 F          -4.6510    0.9690    2.7000 F       1  UNL1       -0.2079
     15 C          -5.3470    0.2930    1.7490 C.3     1  UNL1        0.2517
     16 C           3.2950   -0.0420   -0.2020 C.ar    1  UNL1       -0.0377
     17 C          -0.4970    3.3520    0.1040 C.2     1  UNL1        0.1132
     18 C           4.6920   -0.0410   -0.2320 C.ar    1  UNL1       -0.0595
     19 C          -4.6190    0.3600    0.3900 C.3     1  UNL1        0.0611
     20 C           5.4750   -1.1530    0.0910 C.ar    1  UNL1       -0.0578
     21 C           4.7750   -2.3030    0.4640 C.ar    1  UNL1       -0.0365
     22 C           3.3810   -2.3780    0.5220 C.ar    1  UNL1       -0.0339
     23 H           5.3100    1.0790   -0.5920 H       1  UNL1        0.0618
     24 C           5.4720   -3.3890    0.7860 C.3     1  UNL1        0.0298
     25 H           0.5630    3.6650    0.0310 H       1  UNL1        0.0906
     26 H          -2.3970    3.9450    0.2020 H       1  UNL1        0.1863
     27 H          -5.5710   -0.7350    2.1140 H       1  UNL1        0.1031
     28 H          -5.3240    0.0350   -0.4200 H       1  UNL1        0.0481
     29 H          -4.3110    1.4030    0.1360 H       1  UNL1        0.0481
     30 H          -3.5600   -1.5120    0.3390 H       1  UNL1        0.1270
     31 H           0.8870   -3.4820    0.2840 H       1  UNL1        0.1033
     32 H           2.7310    0.8650   -0.4590 H       1  UNL1        0.0638
     33 H           6.5640   -1.1240    0.0560 H       1  UNL1        0.0620
     34 H           2.8940   -3.2990    0.8380 H       1  UNL1        0.0641
@<TRIPOS>BOND
     1     1     7    1
     2     2     1    2
     3     3    26    1
     4     4     2    1
     5     4     5    1
     6     5    11   ar
     7     5     6   ar
     8     6     7    1
     9     6     9   ar
    10     7     8    1
    11    10    31    1
    12    10     9   ar
    13    11    10   ar
    14    12    11    1
    15    12    22   ar
    16    13    15    1
    17    15    27    1
    18    15    14    1
    19    16    12   ar
    20    17     3    2
    21    17     2    1
    22    18    16   ar
    23    18    20   ar
    24    19     8    1
    25    19    15    1
    26    20    21   ar
    27    21    22   ar
    28    21    24    1
    29    22    34    1
    30    23    18    1
    31    25    17    1
    32    28    19    1
    33    29    19    1
    34    30     8    1
    35    32    16    1
    36    33    20    1
