@<TRIPOS>MOLECULE
mol20.pdb
 41 44 0 0 0
SMALL
GASTEIGER

@<TRIPOS>ATOM
      1 N           0.5080    1.1310    0.1130 N.2     1  UNL1       -0.0370
      2 C          -0.6700    1.8530    0.1630 C.2     1  UNL1        0.3736
      3 N          -1.4220    4.2310    0.1330 N.2     1  UNL1       -0.2995
      4 N          -1.9280    1.3580    0.2580 N.pl3   1  UNL1        0.0149
      5 C          -1.9810   -0.0150    0.3050 C.ar    1  UNL1        0.2681
      6 C          -0.8200   -0.8700    0.2600 C.ar    1  UNL1        0.1863
      7 C           0.4580   -0.2330    0.1600 C.3     1  UNL1        0.3354
      8 N           1.5980   -1.0330    0.1150 N.pl3   1  UNL1       -0.2896
      9 N          -1.2140   -2.2150    0.3280 N.ar    1  UNL1       -0.2296
     10 C          -2.5520   -2.1970    0.4110 C.ar    1  UNL1        0.0998
     11 N          -3.0810   -0.8690    0.4010 N.ar    1  UNL1       -0.2928
     12 F           5.1740    2.2010   -0.2130 F       1  UNL1       -0.2053
     13 F           6.1330   -2.3750   -0.1230 F       1  UNL1       -0.2053
     14 C           5.7360   -0.0680   -0.1740 C.ar    1  UNL1        0.0089
     15 C           3.3940    0.6940   -0.0530 C.ar    1  UNL1       -0.0053
     16 C           3.9000   -1.7000   -0.0060 C.ar    1  UNL1       -0.0053
     17 C          -4.5090   -0.4660    0.4770 C.3     1  UNL1        0.0391
     18 C          -0.4950    3.3520    0.1040 C.2     1  UNL1        0.1133
     19 C           4.7660    0.9360   -0.1460 C.ar    1  UNL1        0.1279
     20 C           5.2520   -1.3780   -0.1010 C.ar    1  UNL1        0.1279
     21 C           2.9610   -0.6390    0.0180 C.ar    1  UNL1        0.0363
     22 C          -5.3130   -1.0760   -0.6920 C.3     1  UNL1       -0.0319
     23 C          -6.0570   -2.3020   -0.1400 C.3     1  UNL1       -0.0511
     24 C          -5.9620   -2.2530    1.3970 C.3     1  UNL1       -0.0511
     25 C          -5.1590   -0.9970    1.7740 C.3     1  UNL1       -0.0319
     26 H           0.5630    3.6670    0.0290 H       1  UNL1        0.0906
     27 H          -2.3970    3.9400    0.2030 H       1  UNL1        0.1863
     28 H          -4.5360    0.6560    0.4430 H       1  UNL1        0.0529
     29 H           1.4170   -2.0500    0.1590 H       1  UNL1        0.1510
     30 H          -3.2010   -3.0620    0.4790 H       1  UNL1        0.1030
     31 H           6.7990    0.1530   -0.2470 H       1  UNL1        0.0675
     32 H           2.6820    1.5290   -0.0360 H       1  UNL1        0.0665
     33 H           3.5830   -2.7400    0.0480 H       1  UNL1        0.0665
     34 H          -4.6700   -1.3390   -1.5500 H       1  UNL1        0.0285
     35 H          -6.0280   -0.3250   -1.0770 H       1  UNL1        0.0285
     36 H          -5.6190   -3.2370   -0.5300 H       1  UNL1        0.0266
     37 H          -7.1110   -2.3020   -0.4710 H       1  UNL1        0.0266
     38 H          -5.4750   -3.1630    1.7880 H       1  UNL1        0.0266
     39 H          -6.9660   -2.2270    1.8550 H       1  UNL1        0.0266
     40 H          -4.4140   -1.2090    2.5600 H       1  UNL1        0.0285
     41 H          -5.8240   -0.2210    2.1960 H       1  UNL1        0.0285
@<TRIPOS>BOND
     1     1     7    1
     2     1     2    2
     3     2     4    1
     4     3    27    1
     5     4     5    1
     6     5    11   ar
     7     6     5   ar
     8     6     9   ar
     9     7     8    1
    10     7     6    1
    11     8    29    1
    12     9    10   ar
    13    10    30    1
    14    11    10   ar
    15    11    17    1
    16    12    19    1
    17    13    20    1
    18    14    19   ar
    19    14    20   ar
    20    15    32    1
    21    15    21   ar
    22    16    21   ar
    23    16    33    1
    24    17    25    1
    25    18     3    2
    26    18     2    1
    27    19    15   ar
    28    20    16   ar
    29    21     8    1
    30    22    23    1
    31    22    17    1
    32    23    24    1
    33    24    25    1
    34    24    38    1
    35    24    39    1
    36    25    41    1
    37    25    40    1
    38    26    18    1
    39    28    17    1
    40    31    14    1
    41    34    22    1
    42    35    22    1
    43    36    23    1
    44    37    23    1
