@<TRIPOS>MOLECULE
mol22.pdb
 41 44 0 0 0
SMALL
GASTEIGER

@<TRIPOS>ATOM
      1 N           0.5070    1.1330    0.1140 N.2     1  UNL1       -0.0370
      2 C          -0.6690    1.8530    0.1630 C.2     1  UNL1        0.3736
      3 N          -1.4220    4.2320    0.1330 N.2     1  UNL1       -0.2995
      4 N          -1.9300    1.3600    0.2570 N.pl3   1  UNL1        0.0149
      5 C          -1.9810   -0.0140    0.3050 C.ar    1  UNL1        0.2681
      6 C          -0.8230   -0.8680    0.2610 C.ar    1  UNL1        0.1863
      7 C           0.4590   -0.2340    0.1610 C.3     1  UNL1        0.3354
      8 N           1.5940   -1.0310    0.1160 N.pl3   1  UNL1       -0.2898
      9 N          -1.2160   -2.2130    0.3290 N.ar    1  UNL1       -0.2296
     10 C          -2.5550   -2.1950    0.4110 C.ar    1  UNL1        0.0998
     11 N          -3.0830   -0.8670    0.4010 N.ar    1  UNL1       -0.2928
     12 C           6.1350   -2.3630   -0.1220 C.3     1  UNL1        0.0298
     13 C           5.7180   -0.0540   -0.1710 C.ar    1  UNL1       -0.0578
     14 C           3.4020    0.6940   -0.0510 C.ar    1  UNL1       -0.0407
     15 C           3.8980   -1.7000   -0.0050 C.ar    1  UNL1       -0.0369
     16 C          -4.5100   -0.4620    0.4760 C.3     1  UNL1        0.0391
     17 C          -0.4960    3.3510    0.1040 C.2     1  UNL1        0.1133
     18 C           4.7690    0.9710   -0.1450 C.ar    1  UNL1       -0.0597
     19 C           5.2470   -1.3680   -0.0990 C.ar    1  UNL1       -0.0368
     20 C           2.9630   -0.6380    0.0190 C.ar    1  UNL1        0.0311
     21 C          -5.3140   -1.0720   -0.6940 C.3     1  UNL1       -0.0319
     22 C          -6.0620   -2.2960   -0.1410 C.3     1  UNL1       -0.0511
     23 C          -5.9670   -2.2470    1.3960 C.3     1  UNL1       -0.0511
     24 C          -5.1620   -0.9920    1.7720 C.3     1  UNL1       -0.0319
     25 H           0.5620    3.6670    0.0280 H       1  UNL1        0.0906
     26 H          -2.3960    3.9390    0.2030 H       1  UNL1        0.1863
     27 H          -4.5360    0.6590    0.4410 H       1  UNL1        0.0529
     28 H           5.0990    2.0100   -0.1980 H       1  UNL1        0.0618
     29 H           1.4150   -2.0480    0.1600 H       1  UNL1        0.1510
     30 H          -3.2030   -3.0600    0.4790 H       1  UNL1        0.1030
     31 H           6.7800    0.1650   -0.2430 H       1  UNL1        0.0620
     32 H           2.6880    1.5230   -0.0340 H       1  UNL1        0.0636
     33 H           3.5830   -2.7410    0.0480 H       1  UNL1        0.0639
     34 H          -4.6700   -1.3370   -1.5500 H       1  UNL1        0.0285
     35 H          -6.0280   -0.3200   -1.0800 H       1  UNL1        0.0285
     36 H          -5.6240   -3.2320   -0.5310 H       1  UNL1        0.0266
     37 H          -7.1150   -2.2940   -0.4730 H       1  UNL1        0.0266
     38 H          -5.4820   -3.1580    1.7880 H       1  UNL1        0.0266
     39 H          -6.9710   -2.2190    1.8530 H       1  UNL1        0.0266
     40 H          -4.4160   -1.2050    2.5580 H       1  UNL1        0.0285
     41 H          -5.8250   -0.2150    2.1950 H       1  UNL1        0.0285
@<TRIPOS>BOND
     1     1     7    1
     2     1     2    2
     3     2     4    1
     4     3    26    1
     5     4     5    1
     6     5    11   ar
     7     6     5   ar
     8     6     9   ar
     9     7     8    1
    10     7     6    1
    11     8    29    1
    12     9    10   ar
    13    10    30    1
    14    11    10   ar
    15    11    16    1
    16    12    19    1
    17    13    18   ar
    18    13    19   ar
    19    14    32    1
    20    14    20   ar
    21    15    20   ar
    22    15    33    1
    23    16    24    1
    24    17     3    2
    25    17     2    1
    26    18    14   ar
    27    19    15   ar
    28    20     8    1
    29    21    22    1
    30    21    16    1
    31    22    23    1
    32    23    24    1
    33    23    38    1
    34    23    39    1
    35    24    41    1
    36    24    40    1
    37    25    17    1
    38    27    16    1
    39    28    18    1
    40    31    13    1
    41    34    21    1
    42    35    21    1
    43    36    22    1
    44    37    22    1
