@<TRIPOS>MOLECULE
mol29.pdb
 39 41 0 0 0
SMALL
GASTEIGER

@<TRIPOS>ATOM
      1 N           0.4770    1.1100    0.1180 N.2     1  UNL1       -0.3209
      2 C          -0.6700    1.8530    0.1630 C.2     1  UNL1        0.3026
      3 N          -1.4220    4.2300    0.1330 N.2     1  UNL1       -0.3011
      4 N          -1.9320    1.3560    0.2560 N.2     1  UNL1       -0.0388
      5 C          -2.0320   -0.0400    0.3070 C.cat   1  UNL1        0.4154
      6 N          -0.9290   -0.8860    0.2680 N.pl3   1  UNL1        0.0075
      7 C           0.3060   -0.2650    0.1730 C.cat   1  UNL1        0.3446
      8 N           1.3800   -1.1500    0.1370 N.pl3   1  UNL1       -0.2610
      9 N          -3.2590   -0.6380    0.4000 N.pl3   1  UNL1       -0.2325
     10 F           5.2120    1.7800   -0.1890 F       1  UNL1       -0.2054
     11 C           5.5710   -0.5350   -0.1350 C.ar    1  UNL1       -0.0263
     12 C           3.3070    0.4330   -0.0310 C.ar    1  UNL1       -0.0051
     13 C           3.6310   -1.9900    0.0290 C.ar    1  UNL1       -0.0402
     14 C          -4.5480    0.1080    0.4540 C.3     1  UNL1        0.0692
     15 C          -0.4950    3.3530    0.1040 C.2     1  UNL1        0.0927
     16 C           4.6960    0.5530   -0.1180 C.ar    1  UNL1        0.1252
     17 C           5.0100   -1.8140   -0.0600 C.ar    1  UNL1       -0.0573
     18 C           2.7740   -0.8610    0.0440 C.ar    1  UNL1        0.0383
     19 C          -5.4590   -0.3460   -0.7090 C.3     1  UNL1       -0.0211
     20 C          -6.3940   -1.4300   -0.1500 C.3     1  UNL1       -0.0500
     21 C          -6.2980   -1.3770    1.3880 C.3     1  UNL1       -0.0500
     22 C          -5.3060   -0.2600    1.7510 C.3     1  UNL1       -0.0211
     23 H           0.5650    3.6650    0.0280 H       1  UNL1        0.0887
     24 H          -2.3960    3.9350    0.2030 H       1  UNL1        0.1862
     25 H          -3.3040   -1.6580    0.4360 H       1  UNL1        0.2448
     26 H           5.6640   -2.6880   -0.0710 H       1  UNL1        0.0619
     27 H          -4.3450    1.2070    0.4030 H       1  UNL1        0.0669
     28 H           1.1210   -2.1480    0.1850 H       1  UNL1        0.1572
     29 H           6.6480   -0.3980   -0.2050 H       1  UNL1        0.0646
     30 H           2.6680    1.3240   -0.0210 H       1  UNL1        0.0665
     31 H           3.2230   -2.9970    0.0860 H       1  UNL1        0.0636
     32 H          -4.8810   -0.7080   -1.5760 H       1  UNL1        0.0297
     33 H          -6.0400    0.5190   -1.0790 H       1  UNL1        0.0297
     34 H          -6.1060   -2.4280   -0.5230 H       1  UNL1        0.0266
     35 H          -7.4320   -1.2670   -0.4880 H       1  UNL1        0.0266
     36 H          -5.9600   -2.3470    1.7910 H       1  UNL1        0.0266
     37 H          -7.2860   -1.1870    1.8410 H       1  UNL1        0.0266
     38 H          -4.6230   -0.5630    2.5620 H       1  UNL1        0.0297
     39 H          -5.8410    0.6310    2.1280 H       1  UNL1        0.0297
@<TRIPOS>BOND
     1     1     2    2
     2     1     7    2
     3     2     4    1
     4     3    24    1
     5     4     5    2
     6     5     9    1
     7     6     5    1
     8     7     6    1
     9     8     7    1
    10     8    28    1
    11     9    25    1
    12     9    14    1
    13    10    16    1
    14    11    16   ar
    15    11    17   ar
    16    12    30    1
    17    12    18   ar
    18    13    18   ar
    19    13    31    1
    20    14    22    1
    21    15     3    2
    22    15     2    1
    23    16    12   ar
    24    17    13   ar
    25    18     8    1
    26    19    20    1
    27    19    14    1
    28    20    21    1
    29    21    22    1
    30    21    36    1
    31    21    37    1
    32    22    39    1
    33    22    38    1
    34    23    15    1
    35    26    17    1
    36    27    14    1
    37    29    11    1
    38    32    19    1
    39    33    19    1
    40    34    20    1
    41    35    20    1
