@<TRIPOS>MOLECULE
mol31.pdb
 34 36 0 0 0
SMALL
GASTEIGER

@<TRIPOS>ATOM
      1 N           0.5050    1.1300    0.1430 N.2     1  UNL1       -0.0370
      2 C          -0.6700    1.8530    0.1630 C.2     1  UNL1        0.3736
      3 N          -1.4220    4.2310    0.1330 N.2     1  UNL1       -0.2995
      4 N          -1.9330    1.3560    0.2270 N.pl3   1  UNL1        0.0148
      5 C          -1.9800   -0.0150    0.2780 C.ar    1  UNL1        0.2680
      6 C          -0.8240   -0.8720    0.2610 C.ar    1  UNL1        0.1863
      7 C           0.4590   -0.2360    0.1910 C.3     1  UNL1        0.3354
      8 N           1.5980   -1.0320    0.1750 N.pl3   1  UNL1       -0.2896
      9 N          -1.2210   -2.2180    0.3190 N.ar    1  UNL1       -0.2296
     10 C          -2.5570   -2.2070    0.3700 C.ar    1  UNL1        0.0997
     11 N          -3.0820   -0.8720    0.3610 N.ar    1  UNL1       -0.2905
     12 C          -4.9370   -0.1330    1.8140 C.3     1  UNL1        0.2570
     13 F           5.1770    2.2090   -0.0500 F       1  UNL1       -0.2053
     14 F           6.1400   -2.3670    0.0390 F       1  UNL1       -0.2053
     15 C           5.7410   -0.0600   -0.0090 C.ar    1  UNL1        0.0089
     16 C           3.3950    0.6990    0.0590 C.ar    1  UNL1       -0.0053
     17 C           3.9040   -1.6950    0.1050 C.ar    1  UNL1       -0.0053
     18 C          -4.4890   -0.4670    0.3750 C.3     1  UNL1        0.0883
     19 C          -0.4960    3.3520    0.1040 C.2     1  UNL1        0.1133
     20 C           4.7700    0.9430    0.0000 C.ar    1  UNL1        0.1279
     21 C           5.2580   -1.3700    0.0450 C.ar    1  UNL1        0.1279
     22 C           2.9640   -0.6340    0.1110 C.ar    1  UNL1        0.0363
     23 F          -6.2770    0.0760    1.8330 F       1  UNL1       -0.2073
     24 F          -4.4620    1.0830    2.1890 F       1  UNL1       -0.2073
     25 H           0.5640    3.6660    0.0290 H       1  UNL1        0.0906
     26 H          -2.3970    3.9440    0.2020 H       1  UNL1        0.1863
     27 H           1.4200   -2.0500    0.2130 H       1  UNL1        0.1510
     28 H          -3.2050   -3.0740    0.4160 H       1  UNL1        0.1030
     29 H          -4.6640   -0.8920    2.5830 H       1  UNL1        0.1037
     30 H           6.8060    0.1630   -0.0560 H       1  UNL1        0.0675
     31 H           2.6840    1.5340    0.0630 H       1  UNL1        0.0665
     32 H           3.5870   -2.7350    0.1450 H       1  UNL1        0.0665
     33 H          -5.1200   -1.3050   -0.0290 H       1  UNL1        0.0549
     34 H          -4.6430    0.3960   -0.3190 H       1  UNL1        0.0549
@<TRIPOS>BOND
     1     1     2    2
     2     1     7    1
     3     2     4    1
     4     3    26    1
     5     4     5    1
     6     5    11   ar
     7     6     5   ar
     8     6     9   ar
     9     7     8    1
    10     7     6    1
    11     8    27    1
    12     9    10   ar
    13    10    28    1
    14    11    10   ar
    15    11    18    1
    16    12    23    1
    17    12    24    1
    18    12    29    1
    19    13    20    1
    20    14    21    1
    21    15    20   ar
    22    15    21   ar
    23    16    31    1
    24    16    22   ar
    25    17    22   ar
    26    17    32    1
    27    18    12    1
    28    19     3    2
    29    19     2    1
    30    20    16   ar
    31    21    17   ar
    32    22     8    1
    33    25    19    1
    34    30    15    1
    35    33    18    1
    36    34    18    1
