@<TRIPOS>MOLECULE
mol30.pdb
 39 41 0 0 0
SMALL
GASTEIGER

@<TRIPOS>ATOM
      1 N           0.4780    1.1090    0.1160 N.2     1  UNL1       -0.3209
      2 C          -0.6710    1.8530    0.1630 C.2     1  UNL1        0.3026
      3 N          -1.4220    4.2300    0.1330 N.2     1  UNL1       -0.3011
      4 N          -1.9300    1.3550    0.2570 N.2     1  UNL1       -0.0388
      5 C          -2.0310   -0.0420    0.3080 C.cat   1  UNL1        0.4154
      6 N          -0.9260   -0.8870    0.2680 N.pl3   1  UNL1        0.0075
      7 C           0.3060   -0.2640    0.1710 C.cat   1  UNL1        0.3446
      8 N           1.3830   -1.1500    0.1330 N.pl3   1  UNL1       -0.2611
      9 C           4.6880    0.5930   -0.1270 C.ar    1  UNL1       -0.0365
     10 N          -3.2560   -0.6400    0.4030 N.pl3   1  UNL1       -0.2325
     11 C           5.5700   -0.4910   -0.1460 C.ar    1  UNL1       -0.0540
     12 C           3.3040    0.4440   -0.0370 C.ar    1  UNL1       -0.0366
     13 C           3.6340   -1.9800    0.0210 C.ar    1  UNL1       -0.0366
     14 C          -4.5460    0.1040    0.4590 C.3     1  UNL1        0.0692
     15 C          -0.4950    3.3530    0.1040 C.2     1  UNL1        0.0927
     16 C           5.3420    2.1850   -0.2190 C.3     1  UNL1        0.0298
     17 C           5.0060   -1.7660   -0.0700 C.ar    1  UNL1       -0.0365
     18 C           2.7730   -0.8550    0.0380 C.ar    1  UNL1        0.0361
     19 C          -5.4560   -0.3480   -0.7070 C.3     1  UNL1       -0.0211
     20 C          -6.3880   -1.4370   -0.1510 C.3     1  UNL1       -0.0500
     21 C          -6.2930   -1.3880    1.3870 C.3     1  UNL1       -0.0500
     22 C           6.0560   -3.1360   -0.0910 C.3     1  UNL1        0.0298
     23 C          -5.3040   -0.2690    1.7540 C.3     1  UNL1       -0.0211
     24 H           0.5650    3.6650    0.0280 H       1  UNL1        0.0887
     25 H          -2.3960    3.9360    0.2030 H       1  UNL1        0.1862
     26 H          -3.3010   -1.6610    0.4390 H       1  UNL1        0.2448
     27 H          -4.3450    1.2040    0.4110 H       1  UNL1        0.0669
     28 H           6.6470   -0.3470   -0.2170 H       1  UNL1        0.0623
     29 H           1.1260   -2.1490    0.1820 H       1  UNL1        0.1572
     30 H           2.6570    1.3300   -0.0250 H       1  UNL1        0.0639
     31 H           3.2420   -2.9940    0.0780 H       1  UNL1        0.0639
     32 H          -4.8770   -0.7060   -1.5750 H       1  UNL1        0.0297
     33 H          -6.0390    0.5160   -1.0730 H       1  UNL1        0.0297
     34 H          -6.0960   -2.4330   -0.5270 H       1  UNL1        0.0266
     35 H          -7.4260   -1.2760   -0.4890 H       1  UNL1        0.0266
     36 H          -5.9520   -2.3590    1.7880 H       1  UNL1        0.0266
     37 H          -7.2820   -1.2020    1.8400 H       1  UNL1        0.0266
     38 H          -4.6220   -0.5720    2.5660 H       1  UNL1        0.0297
     39 H          -5.8420    0.6190    2.1330 H       1  UNL1        0.0297
@<TRIPOS>BOND
     1     1     2    2
     2     1     7    2
     3     2     4    1
     4     3    25    1
     5     4     5    2
     6     5    10    1
     7     6     5    1
     8     7     6    1
     9     8     7    1
    10     8    29    1
    11     9    12   ar
    12    10    26    1
    13    10    14    1
    14    11     9   ar
    15    11    17   ar
    16    12    30    1
    17    12    18   ar
    18    13    18   ar
    19    13    31    1
    20    14    23    1
    21    15     3    2
    22    15     2    1
    23    16     9    1
    24    17    13   ar
    25    18     8    1
    26    19    20    1
    27    19    14    1
    28    20    21    1
    29    21    23    1
    30    21    36    1
    31    21    37    1
    32    22    17    1
    33    23    39    1
    34    23    38    1
    35    24    15    1
    36    27    14    1
    37    28    11    1
    38    32    19    1
    39    33    19    1
    40    34    20    1
    41    35    20    1
