@<TRIPOS>MOLECULE
mol32.pdb
 34 36 0 0 0
SMALL
GASTEIGER

@<TRIPOS>ATOM
      1 N          -1.9480    1.3770    0.2750 N.2     1  UNL1       -0.0413
      2 C          -0.6690    1.8520    0.1630 C.2     1  UNL1        0.3733
      3 N          -1.4220    4.2320    0.1330 N.2     1  UNL1       -0.2995
      4 N           0.4830    1.1210    0.0980 N.pl3   1  UNL1        0.0152
      5 C           0.2870   -0.2320    0.1570 C.ar    1  UNL1        0.2719
      6 C          -1.0050   -0.8510    0.2740 C.ar    1  UNL1        0.1828
      7 C          -2.1500    0.0060    0.3320 C.3     1  UNL1        0.3189
      8 N          -3.4130   -0.4920    0.4420 N.3     1  UNL1       -0.2620
      9 N          -0.8780   -2.2510    0.3090 N.ar    1  UNL1       -0.2296
     10 C           0.4230   -2.5050    0.2240 C.ar    1  UNL1        0.1042
     11 N           1.2180   -1.2940    0.1270 N.ar    1  UNL1       -0.2641
     12 C           2.6420   -1.2310    0.0280 C.ar    1  UNL1        0.0567
     13 C          -5.8720   -0.4480    0.6360 C.3     1  UNL1       -0.0524
     14 C           3.3840   -2.4170    0.2170 C.ar    1  UNL1       -0.0022
     15 C          -0.4960    3.3520    0.1040 C.2     1  UNL1        0.1132
     16 C           4.7730   -2.3440    0.1060 C.ar    1  UNL1        0.1281
     17 C          -4.6100    0.3920    0.5060 C.3     1  UNL1       -0.0023
     18 C           5.4690   -1.1670   -0.1790 C.ar    1  UNL1        0.0089
     19 C           4.6830   -0.0240   -0.3510 C.ar    1  UNL1        0.1281
     20 C           3.2900   -0.0190   -0.2580 C.ar    1  UNL1       -0.0022
     21 F           5.4730   -3.4620    0.2830 F       1  UNL1       -0.2053
     22 F           5.2980    1.1240   -0.6230 F       1  UNL1       -0.2053
     23 H           0.5630    3.6660    0.0290 H       1  UNL1        0.0906
     24 H          -2.3960    3.9380    0.2030 H       1  UNL1        0.1863
     25 H          -6.7600    0.1980    0.6840 H       1  UNL1        0.0242
     26 H          -6.0160   -1.1220   -0.2190 H       1  UNL1        0.0242
     27 H          -5.8760   -1.0590    1.5480 H       1  UNL1        0.0242
     28 H          -4.6420    1.0280   -0.4120 H       1  UNL1        0.0423
     29 H          -4.5010    1.0920    1.3690 H       1  UNL1        0.0423
     30 H          -3.5480   -1.5030    0.4840 H       1  UNL1        0.1268
     31 H           0.8900   -3.4820    0.2160 H       1  UNL1        0.1033
     32 H           2.9010   -3.3640    0.4530 H       1  UNL1        0.0667
     33 H           6.5560   -1.1400   -0.2590 H       1  UNL1        0.0675
     34 H           2.7250    0.9130   -0.4000 H       1  UNL1        0.0667
@<TRIPOS>BOND
     1     1     7    1
     2     2     1    2
     3     3    24    1
     4     4     5    1
     5     4     2    1
     6     5     6   ar
     7     6     9   ar
     8     6     7    1
     9     7     8    1
    10     8    30    1
    11     8    17    1
    12    10     9   ar
    13    11     5   ar
    14    11    10   ar
    15    12    11    1
    16    12    14   ar
    17    13    25    1
    18    13    27    1
    19    14    32    1
    20    15     3    2
    21    15     2    1
    22    16    14   ar
    23    16    21    1
    24    17    13    1
    25    17    29    1
    26    18    16   ar
    27    19    20   ar
    28    19    18   ar
    29    20    12   ar
    30    22    19    1
    31    23    15    1
    32    26    13    1
    33    28    17    1
    34    31    10    1
    35    33    18    1
    36    34    20    1
