@<TRIPOS>MOLECULE
mol04.pdb
 35 36 0 0 0
SMALL
GASTEIGER

@<TRIPOS>ATOM
      1 N           0.4730    1.1100    0.0850 N.2     1  UNL1       -0.3209
      2 C          -0.6700    1.8530    0.1630 C.2     1  UNL1        0.3026
      3 N          -1.4220    4.2310    0.1330 N.2     1  UNL1       -0.3011
      4 N          -1.9310    1.3600    0.2920 N.2     1  UNL1       -0.0388
      5 C          -2.0320   -0.0350    0.3380 C.cat   1  UNL1        0.4154
      6 N          -0.9340   -0.8840    0.2840 N.pl3   1  UNL1        0.0075
      7 C           0.3020   -0.2680    0.1490 C.cat   1  UNL1        0.3446
      8 N           1.3690   -1.1510    0.0900 N.pl3   1  UNL1       -0.2611
      9 N          -3.2660   -0.6290    0.4140 N.pl3   1  UNL1       -0.2330
     10 C          -5.6670   -0.6530   -0.0590 C.3     1  UNL1       -0.0334
     11 C           5.5370   -0.5070   -0.2330 C.ar    1  UNL1       -0.0616
     12 C           3.2880    0.4140   -0.2960 C.ar    1  UNL1       -0.0404
     13 C           3.6350   -1.9630    0.1490 C.ar    1  UNL1       -0.0404
     14 C          -4.5340    0.1480    0.5880 C.3     1  UNL1        0.0636
     15 C          -0.4950    3.3520    0.1040 C.2     1  UNL1        0.0927
     16 C           4.6720    0.5780   -0.3980 C.ar    1  UNL1       -0.0600
     17 C           5.0120   -1.7750    0.0400 C.ar    1  UNL1       -0.0600
     18 C           2.7680   -0.8590   -0.0190 C.ar    1  UNL1        0.0356
     19 C          -4.7900    0.3980    2.0760 C.3     1  UNL1       -0.0334
     20 H           0.5640    3.6650    0.0280 H       1  UNL1        0.0887
     21 H          -2.3960    3.9330    0.2030 H       1  UNL1        0.1862
     22 H          -3.3060   -1.6440    0.5120 H       1  UNL1        0.2448
     23 H           5.0760    1.5680   -0.6110 H       1  UNL1        0.0618
     24 H           5.6830   -2.6240    0.1700 H       1  UNL1        0.0618
     25 H          -6.6070   -0.0870   -0.0220 H       1  UNL1        0.0261
     26 H           1.1170   -2.1480    0.1670 H       1  UNL1        0.1572
     27 H          -5.8510   -1.6090    0.4440 H       1  UNL1        0.0261
     28 H          -5.4620   -0.8670   -1.1160 H       1  UNL1        0.0261
     29 H          -4.4170    1.1340    0.0580 H       1  UNL1        0.0663
     30 H          -3.9780    0.9920    2.5210 H       1  UNL1        0.0261
     31 H           6.6120   -0.3670   -0.3160 H       1  UNL1        0.0618
     32 H           2.6310    1.2780   -0.4290 H       1  UNL1        0.0636
     33 H           3.2430   -2.9540    0.3650 H       1  UNL1        0.0636
     34 H          -4.8690   -0.5300    2.6520 H       1  UNL1        0.0261
     35 H          -5.7190    0.9590    2.2280 H       1  UNL1        0.0261
@<TRIPOS>BOND
     1     1     7    2
     2     1     2    2
     3     2     4    1
     4     3    21    1
     5     4     5    2
     6     5     9    1
     7     6     5    1
     8     7     6    1
     9     8     7    1
    10     8    26    1
    11     9    22    1
    12     9    14    1
    13    10    25    1
    14    10    27    1
    15    10    14    1
    16    11    17   ar
    17    12    18   ar
    18    13    33    1
    19    14    19    1
    20    15     3    2
    21    15     2    1
    22    16    12   ar
    23    16    11   ar
    24    17    13   ar
    25    17    24    1
    26    18     8    1
    27    18    13   ar
    28    19    35    1
    29    19    30    1
    30    19    34    1
    31    20    15    1
    32    23    16    1
    33    28    10    1
    34    29    14    1
    35    31    11    1
    36    32    12    1
