@<TRIPOS>MOLECULE
mol01.pdb
 32 33 0 0 0
SMALL
GASTEIGER

@<TRIPOS>ATOM
      1 N           0.4760    1.1110    0.1540 N.2     1  UNL1       -0.3209
      2 C          -0.6700    1.8530    0.1630 C.2     1  UNL1        0.3026
      3 N          -1.4220    4.2310    0.1330 N.2     1  UNL1       -0.3011
      4 N          -1.9360    1.3570    0.2170 N.2     1  UNL1       -0.0388
      5 C          -2.0360   -0.0360    0.2740 C.cat   1  UNL1        0.4152
      6 N          -0.9400   -0.8830    0.2390 N.pl3   1  UNL1        0.0075
      7 C           0.3040   -0.2660    0.1930 C.cat   1  UNL1        0.3446
      8 N           1.3730   -1.1490    0.1800 N.pl3   1  UNL1       -0.2611
      9 N          -3.2670   -0.6330    0.4370 N.pl3   1  UNL1       -0.2354
     10 C          -5.7010   -0.5500    0.9780 C.3     1  UNL1       -0.0361
     11 C           5.5440   -0.4910   -0.0550 C.ar    1  UNL1       -0.0616
     12 C           3.3180    0.4260    0.2790 C.ar    1  UNL1       -0.0404
     13 C           3.6160   -1.9590   -0.1600 C.ar    1  UNL1       -0.0404
     14 C          -4.5380    0.1130    0.2460 C.3     1  UNL1        0.0553
     15 C          -0.4950    3.3530    0.1040 C.2     1  UNL1        0.0927
     16 C           4.7030    0.5950    0.1990 C.ar    1  UNL1       -0.0600
     17 C           4.9940   -1.7660   -0.2330 C.ar    1  UNL1       -0.0600
     18 C           2.7730   -0.8530    0.0970 C.ar    1  UNL1        0.0356
     19 H           0.5640    3.6650    0.0290 H       1  UNL1        0.0887
     20 H          -2.3960    3.9340    0.2030 H       1  UNL1        0.1862
     21 H           5.1270    1.5900    0.3390 H       1  UNL1        0.0618
     22 H          -3.3110   -1.6500    0.3470 H       1  UNL1        0.2445
     23 H           5.6470   -2.6160   -0.4310 H       1  UNL1        0.0618
     24 H           1.1170   -2.1470    0.1900 H       1  UNL1        0.1572
     25 H          -6.6240    0.0290    0.8510 H       1  UNL1        0.0258
     26 H          -5.5200   -0.6460    2.0540 H       1  UNL1        0.0258
     27 H          -5.8990   -1.5580    0.5870 H       1  UNL1        0.0258
     28 H           6.6210   -0.3480   -0.1150 H       1  UNL1        0.0618
     29 H           2.6800    1.2910    0.4800 H       1  UNL1        0.0636
     30 H           3.2030   -2.9540   -0.3050 H       1  UNL1        0.0636
     31 H          -4.7640    0.1960   -0.8450 H       1  UNL1        0.0629
     32 H          -4.3690    1.1480    0.6230 H       1  UNL1        0.0629
@<TRIPOS>BOND
     1     1     2    2
     2     1     7    2
     3     2     4    1
     4     3    20    1
     5     4     5    2
     6     5     9    1
     7     6     5    1
     8     7     6    1
     9     8    24    1
    10     8     7    1
    11    10    26    1
    12    11    16   ar
    13    12    29    1
    14    13    18   ar
    15    14     9    1
    16    14    32    1
    17    14    10    1
    18    15     3    2
    19    15     2    1
    20    16    12   ar
    21    16    21    1
    22    17    13   ar
    23    17    11   ar
    24    18     8    1
    25    18    12   ar
    26    19    15    1
    27    22     9    1
    28    23    17    1
    29    25    10    1
    30    27    10    1
    31    28    11    1
    32    30    13    1
    33    31    14    1
