@<TRIPOS>MOLECULE
mol03.pdb
 35 36 0 0 0
SMALL
GASTEIGER

@<TRIPOS>ATOM
      1 N           0.4730    1.1090    0.1020 N.2     1  UNL1       -0.3209
      2 C          -0.6700    1.8530    0.1630 C.2     1  UNL1        0.3026
      3 N          -1.4220    4.2310    0.1330 N.2     1  UNL1       -0.3011
      4 N          -1.9330    1.3600    0.2750 N.2     1  UNL1       -0.0388
      5 C          -2.0340   -0.0340    0.3220 C.cat   1  UNL1        0.4152
      6 N          -0.9370   -0.8820    0.2950 N.pl3   1  UNL1        0.0075
      7 C           0.3030   -0.2670    0.1710 C.cat   1  UNL1        0.3446
      8 N           1.3700   -1.1510    0.1310 N.pl3   1  UNL1       -0.2611
      9 N          -3.2710   -0.6350    0.3470 N.pl3   1  UNL1       -0.2352
     10 C           5.5420   -0.5000   -0.1200 C.ar    1  UNL1       -0.0616
     11 C           3.2910    0.4100   -0.2570 C.ar    1  UNL1       -0.0404
     12 C           3.6370   -1.9520    0.2640 C.ar    1  UNL1       -0.0404
     13 C          -4.5230    0.1280    0.5710 C.3     1  UNL1        0.0578
     14 C          -0.4950    3.3530    0.1040 C.2     1  UNL1        0.0927
     15 C           4.6770    0.5760   -0.3350 C.ar    1  UNL1       -0.0600
     16 C           5.0150   -1.7620    0.1780 C.ar    1  UNL1       -0.0600
     17 C           2.7710   -0.8570    0.0460 C.ar    1  UNL1        0.0356
     18 C          -6.1880    0.9460    2.2780 C.3     1  UNL1       -0.0626
     19 C          -4.8440    0.2580    2.0690 C.3     1  UNL1       -0.0269
     20 H           0.5650    3.6650    0.0290 H       1  UNL1        0.0887
     21 H          -2.3960    3.9340    0.2030 H       1  UNL1        0.1862
     22 H          -3.3060   -1.6460    0.4820 H       1  UNL1        0.2445
     23 H           5.0820    1.5620   -0.5690 H       1  UNL1        0.0618
     24 H          -4.4370    1.1400    0.1070 H       1  UNL1        0.0632
     25 H           5.6860   -2.6040    0.3470 H       1  UNL1        0.0618
     26 H          -5.3380   -0.4060    0.0330 H       1  UNL1        0.0632
     27 H           1.1180   -2.1470    0.2120 H       1  UNL1        0.1572
     28 H          -6.2000    1.9550    1.8460 H       1  UNL1        0.0231
     29 H          -6.4130    1.0530    3.3470 H       1  UNL1        0.0231
     30 H          -7.0130    0.3840    1.8270 H       1  UNL1        0.0231
     31 H           6.6180   -0.3580   -0.1840 H       1  UNL1        0.0618
     32 H           2.6340    1.2670   -0.4300 H       1  UNL1        0.0636
     33 H           3.2440   -2.9380    0.5010 H       1  UNL1        0.0636
     34 H          -4.8490   -0.7380    2.5540 H       1  UNL1        0.0291
     35 H          -4.0410    0.8350    2.5720 H       1  UNL1        0.0291
@<TRIPOS>BOND
     1     1     2    2
     2     1     7    2
     3     2     4    1
     4     3    21    1
     5     4     5    2
     6     5     9    1
     7     6     5    1
     8     7     6    1
     9     8     7    1
    10     8    27    1
    11     9    22    1
    12     9    13    1
    13    10    16   ar
    14    11    17   ar
    15    12    33    1
    16    13    19    1
    17    14     3    2
    18    14     2    1
    19    15    11   ar
    20    15    10   ar
    21    16    12   ar
    22    16    25    1
    23    17     8    1
    24    17    12   ar
    25    18    29    1
    26    19    18    1
    27    19    34    1
    28    19    35    1
    29    20    14    1
    30    23    15    1
    31    24    13    1
    32    26    13    1
    33    28    18    1
    34    30    18    1
    35    31    10    1
    36    32    11    1
