@<TRIPOS>MOLECULE
mol05.pdb
 38 39 0 0 0
SMALL
GASTEIGER

@<TRIPOS>ATOM
      1 N           0.4750    1.1100    0.1280 N.2     1  UNL1       -0.3209
      2 C          -0.6700    1.8530    0.1630 C.2     1  UNL1        0.3026
      3 N          -1.4220    4.2310    0.1330 N.2     1  UNL1       -0.3011
      4 N          -1.9350    1.3590    0.2500 N.2     1  UNL1       -0.0388
      5 C          -2.0350   -0.0350    0.2950 C.cat   1  UNL1        0.4152
      6 N          -0.9370   -0.8820    0.2910 N.pl3   1  UNL1        0.0075
      7 C           0.3040   -0.2660    0.1930 C.cat   1  UNL1        0.3446
      8 N           1.3720   -1.1510    0.1720 N.pl3   1  UNL1       -0.2611
      9 N          -3.2720   -0.6370    0.2850 N.pl3   1  UNL1       -0.2349
     10 C          -4.8450    0.3160    2.0070 C.3     1  UNL1       -0.0178
     11 C          -5.1390   -1.0220    2.6920 C.3     1  UNL1       -0.0600
     12 C           5.5490   -0.5310   -0.0650 C.ar    1  UNL1       -0.0616
     13 C           3.3170    0.4260    0.0400 C.ar    1  UNL1       -0.0404
     14 C           3.6220   -1.9980    0.0620 C.ar    1  UNL1       -0.0404
     15 C          -4.5240    0.1240    0.5040 C.3     1  UNL1        0.0604
     16 C          -0.4950    3.3530    0.1040 C.2     1  UNL1        0.0927
     17 C           4.7040    0.5810   -0.0370 C.ar    1  UNL1       -0.0600
     18 C           5.0020   -1.8180   -0.0150 C.ar    1  UNL1       -0.0600
     19 C           2.7740   -0.8660    0.0900 C.ar    1  UNL1        0.0356
     20 C          -6.0330    1.2730    2.1460 C.3     1  UNL1       -0.0600
     21 H           0.5640    3.6650    0.0280 H       1  UNL1        0.0887
     22 H          -2.3960    3.9330    0.2020 H       1  UNL1        0.1862
     23 H          -3.3100   -1.6470    0.4360 H       1  UNL1        0.2445
     24 H           5.1260    1.5850   -0.0760 H       1  UNL1        0.0618
     25 H           5.6570   -2.6890   -0.0360 H       1  UNL1        0.0618
     26 H           1.1130   -2.1480    0.2210 H       1  UNL1        0.1572
     27 H          -3.9530    0.7830    2.4980 H       1  UNL1        0.0324
     28 H          -5.4160   -0.8730    3.7430 H       1  UNL1        0.0233
     29 H          -4.2660   -1.6830    2.6870 H       1  UNL1        0.0233
     30 H           6.6270   -0.3990   -0.1250 H       1  UNL1        0.0618
     31 H           2.6770    1.3120    0.0600 H       1  UNL1        0.0636
     32 H           3.2110   -3.0040    0.1000 H       1  UNL1        0.0636
     33 H          -5.9680   -1.5550    2.2150 H       1  UNL1        0.0233
     34 H          -5.3430   -0.4260   -0.0100 H       1  UNL1        0.0635
     35 H          -4.4430    1.1210    0.0060 H       1  UNL1        0.0635
     36 H          -5.8200    2.2500    1.6980 H       1  UNL1        0.0233
     37 H          -6.2750    1.4500    3.2010 H       1  UNL1        0.0233
     38 H          -6.9380    0.8780    1.6700 H       1  UNL1        0.0233
@<TRIPOS>BOND
     1     1     2    2
     2     1     7    2
     3     2     4    1
     4     3    22    1
     5     4     5    2
     6     6     5    1
     7     7     6    1
     8     8     7    1
     9     8    26    1
    10     9     5    1
    11     9    23    1
    12     9    15    1
    13    10    20    1
    14    10    27    1
    15    10    11    1
    16    11    28    1
    17    12    17   ar
    18    12    18   ar
    19    13    31    1
    20    13    19   ar
    21    14    19   ar
    22    14    32    1
    23    15    10    1
    24    16     3    2
    25    16     2    1
    26    17    13   ar
    27    18    14   ar
    28    19     8    1
    29    20    37    1
    30    21    16    1
    31    24    17    1
    32    25    18    1
    33    29    11    1
    34    30    12    1
    35    33    11    1
    36    34    15    1
    37    35    15    1
    38    36    20    1
    39    38    20    1
